%chk=holoCaM-CaMKII.loop3.water2.frame400.chk
%nprocshared=20
%mem=10GB
%nosave
#b3lyp/svp scf=(tight,noincore,xqc) Test 
#IOP(5/87=12) Density=Current Pop=(MK,readradii) iop(6/33=2) iop(6/42=6)

holoCaM-CaMKII.loop3.water2.frame400 

   0  1 
C         40.65064       83.85273       58.03314
C         39.15704       83.94610       58.08447
O         38.50965       82.92650       57.88954
H         41.12723       84.83356       58.23499
H         40.99688       83.12200       58.79459
H         40.96215       83.50030       57.02728
N         38.53377       85.13484       58.34158
C         37.08608       85.25743       58.41462
C         36.57048       86.19983       57.33171
O         36.99086       87.34634       57.26373
C         36.63901       85.71581       59.81784
C         35.13942       85.60406       59.95666
O         34.50515       85.91390       61.09513
O         34.45876       85.21192       59.02143
H         39.10374       85.98049       58.49693
H         36.62783       84.25461       58.26816
H         36.97051       86.75953       60.01127
H         37.10098       85.05723       60.58143
N         35.62634       85.75192       56.45694
C         35.08093       86.51955       55.33627
C         34.37970       87.83113       55.70559
O         34.12203       88.60215       54.79121
C         34.12020       85.61152       54.51995
C         32.86640       85.19108       55.32801
C         32.06737       84.04931       54.68274
C         31.44858       84.39583       53.32616
N         30.68644       83.25674       52.81059
H         35.32337       84.77334       56.56766
H         35.94676       86.78532       54.69059
H         34.69066       84.69984       54.23500
H         33.80603       86.12140       53.58472
H         32.21155       86.07065       55.50810
H         33.17366       84.80284       56.31828
H         31.23956       83.78432       55.37518
H         32.72889       83.16072       54.57559
H         32.24544       84.65702       52.59789
H         30.77061       85.26939       53.44554
H         30.25558       83.51527       51.89426
H         31.31961       82.43598       52.66736
H         29.92559       82.99594       53.48001
N         33.99381       88.14089       56.97983
C         33.26316       89.37523       57.30965
C         33.68868       90.01725       58.64259
O         33.18794       91.09434       58.93662
C         31.73050       89.14137       57.21797
C         31.22011       88.10366       58.17545
O         30.04295       87.78663       58.18075
O         32.09732       87.51044       58.99538
H         34.11609       87.41971       57.69911
H         33.48999       90.14248       56.53579
H         31.49016       88.80727       56.18487
H         31.19615       90.09965       57.39874
N         34.63444       89.47069       59.46782
C         35.18371       90.16858       60.62517
C         34.27186       90.37361       61.82487
O         34.72684       91.04371       62.74241
H         35.08761       88.58367       59.21739
H         35.54382       91.16389       60.28236
H         36.07044       89.60920       60.99459
N         33.00853       89.86126       61.93182
C         32.15822       90.16895       63.09199
C         32.69358       89.63383       64.42191
O         32.15565       90.02590       65.44815
C         30.70577       89.68587       62.88610
C         30.57345       88.19193       63.00089
N         29.70187       87.62461       63.86231
O         31.26661       87.47909       62.30711
H         32.62757       89.30566       61.15304
H         32.11694       91.27960       63.15433
H         30.35752       90.01523       61.88411
H         30.04569       90.15968       63.64473
H         29.09054       88.19377       64.46393
H         29.62973       86.59975       63.90408
N         33.71676       88.72972       64.49036
C         34.26869       88.25369       65.75138
C         34.18735       86.75094       65.94164
O         34.72383       86.29474       66.94354
H         34.14944       88.37704       63.62478
H         33.78207       88.73452       66.62538
H         35.34321       88.54114       65.77174
N         33.60148       85.90348       65.04029
C         33.73357       84.45073       65.17994
C         33.62265       83.71448       63.85560
O         33.22473       84.29651       62.85875
C         32.77560       83.84936       66.24293
C         31.31468       83.80189       65.83488
C         30.78606       82.63308       65.25163
C         30.45839       84.89110       66.06479
C         29.43699       82.56275       64.88908
C         29.10207       84.81043       65.71666
C         28.58938       83.65339       65.12062
O         27.28591       83.60159       64.77588
H         33.18977       86.29785       64.18280
H         34.78185       84.26198       65.50555
H         32.88084       84.34999       67.22882
H         33.10040       82.80198       66.42342
H         31.42035       81.77566       65.06681
H         30.83423       85.79649       66.52369
H         29.05232       81.66045       64.42913
H         28.44735       85.65304       65.90345
H         26.89389       82.82360       64.35305
N         34.01856       82.41401       63.77872
C         33.96489       81.61017       62.56408
C         33.15689       80.34840       62.79857
O         33.35412       79.66761       63.79589
C         35.37857       81.28464       61.99384
C         36.35401       80.72965       63.06055
C         35.94973       82.53254       61.29711
C         37.67147       80.22385       62.46798
H         34.40101       81.97039       64.62814
H         33.45207       82.16218       61.75674
H         35.24095       80.52081       61.19419
H         35.88433       79.87127       63.58117
H         36.57891       81.51750       63.81254
H         36.90418       82.31711       60.77788
H         35.24638       82.87142       60.50617
H         36.10149       83.35717       62.02386
H         38.30996       79.82241       63.28223
H         37.47266       79.41078       61.73778
H         38.24065       81.03356       61.96937
N         32.28129       79.93591       61.84052
C         31.52876       78.69127       61.89607
C         32.22421       77.64235       61.04784
O         33.26718       77.92903       60.48253
C         30.09572       78.94979       61.39120
O         30.12769       79.37438       60.05386
H         32.22547       80.47894       60.96792
H         31.48270       78.30649       62.93832
H         29.62574       79.73614       62.02221
H         29.49280       78.01924       61.46617
H         29.18679       79.52935       59.78169
N         31.70580       76.39148       60.91494
C         32.31550       75.37158       60.06713
C         32.36417       75.83588       58.62484
O         33.43096       75.81975       58.02707
C         31.52115       74.06482       60.15117
H         30.83850       76.16159       61.42357
H         33.34779       75.15638       60.42511
H         31.51144       73.69637       61.19847
H         30.47290       74.21287       59.81449
H         31.99714       73.29079       59.51130
N         31.23307       76.28736       58.01454
C         31.18185       76.73480       56.62787
C         32.20599       77.81836       56.34173
O         32.88131       77.72185       55.32630
C         29.76825       77.21758       56.28061
H         30.36521       76.32307       58.57250
H         31.39649       75.87114       55.95971
H         29.47257       78.08199       56.91206
H         29.71459       77.51257       55.21059
H         29.04187       76.39090       56.44298
N         32.40249       78.86260       57.19695
C         33.40053       79.90039       56.94090
C         34.79603       79.29536       56.88349
O         35.42532       79.37659       55.83777
C         33.31137       81.04425       57.97977
C         31.94549       81.74997       57.87013
C         31.82733       82.95348       58.75647
O         31.87117       82.82245       60.09060
O         31.63640       84.05587       58.27045
H         31.83267       78.90706       58.05448
H         33.18480       80.35654       55.94817
H         34.10781       81.78851       57.75458
H         33.47999       80.66066       59.00878
H         31.12147       81.05358       58.12370
H         31.80885       82.07269       56.81925
N         35.32930       78.64873       57.95665
C         36.62407       77.99580       57.94431
H         37.27353       78.44234       58.72558
H         36.48969       76.91548       58.16730
H         37.13660       78.08396       56.96346
H         34.79017       78.59893       58.82588
Ca        32.32499       85.94392       60.56097
O         28.73523       86.49898       61.08974
H         29.24386       86.86726       60.32706
H         28.22627       85.74283       60.70591
O         30.23939       84.27152       62.08992
H         29.46121       83.68665       61.91421
H         30.80168       83.74663       62.70884

Ca 1.0



