%chk=holoCaM.loop4.water3.frame25.chk
%nprocshared=20
%mem=10GB
%nosave
#b3lyp/svp scf=(tight,noincore,xqc) Test 
#IOP(5/87=12) Density=Current Pop=(MK,readradii) iop(6/33=2) iop(6/42=6)

holoCaM.loop4.water3.frame25 

   -3  1 
C         87.41128       20.19871       17.05888
C         86.13049       20.66408       16.41908
O         85.33260       19.85139       15.97871
H         88.28335       20.63913       16.53070
H         87.43525       20.54114       18.11789
H         87.49662       19.09269       17.04760
N         85.86604       21.99358       16.37972
C         84.61605       22.59010       15.91480
C         84.34307       22.40186       14.42072
O         85.17577       22.78819       13.61487
C         84.67284       24.09567       16.23575
C         83.42266       24.79594       15.83586
O         82.23921       24.38704       16.33025
O         83.47585       25.72994       15.05240
H         86.58361       22.61806       16.78409
H         83.77630       22.15711       16.50061
H         85.54132       24.56180       15.71902
H         84.80669       24.23377       17.32886
N         83.13470       21.90537       13.99547
C         82.72174       21.84173       12.58233
C         81.47365       22.72260       12.30160
O         81.15444       22.92271       11.13580
C         82.46354       20.34282       12.18439
C         83.71164       19.47539       12.50991
C         82.06992       20.18770       10.69709
C         83.54076       17.98196       12.20814
H         82.46898       21.57335       14.70715
H         83.54160       22.24113       11.94819
H         81.61636       19.96006       12.79793
H         83.92638       19.55065       13.59665
H         84.59471       19.85406       11.95182
H         82.87709       20.56816       10.03636
H         81.85610       19.13250       10.44100
H         81.12218       20.70502       10.46274
H         82.65776       17.57345       12.74410
H         83.43507       17.79414       11.12053
H         84.44545       17.43253       12.54232
N         80.69408       23.23838       13.29547
C         79.40178       23.92018       13.08447
C         79.27420       25.27428       13.81721
O         78.21932       25.88496       13.74187
C         78.22392       22.97814       13.47080
C         78.24483       22.49346       14.89327
O         79.32474       22.73262       15.64967
O         77.29826       21.87236       15.34595
H         80.99596       23.06050       14.25454
H         79.25170       24.13471       12.00335
H         78.21755       22.08720       12.80652
H         77.27200       23.52706       13.29706
N         80.32217       25.82927       14.48696
C         80.32587       27.16289       15.08655
C         79.56516       27.36990       16.39600
O         79.60357       28.49494       16.87515
H         81.21215       25.33951       14.43922
H         79.96441       27.89335       14.33029
H         81.38111       27.42865       15.31284
N         78.85837       26.39473       17.04170
C         78.06960       26.66950       18.25846
C         78.89081       26.84097       19.55000
O         78.28034       27.04251       20.59076
C         76.93731       25.62577       18.41279
C         77.38130       24.22073       18.67061
O         78.63565       23.94788       19.04819
O         76.59262       23.30410       18.51359
H         78.79336       25.46596       16.60088
H         77.51368       27.62050       18.09348
H         76.38073       25.63008       17.44957
H         76.22226       25.91839       19.21128
N         80.25742       26.82516       19.56911
C         81.04953       27.07913       20.77376
C         81.12820       25.93089       21.77882
O         81.78618       26.11642       22.79288
H         80.76832       26.73547       18.68211
H         80.67194       28.00029       21.27099
H         82.09731       27.28519       20.46482
N         80.52385       24.72509       21.57401
C         80.59319       23.59012       22.49599
C         81.11286       22.34096       21.79673
O         80.53784       21.94570       20.79032
C         79.19714       23.25222       23.04140
C         78.56984       24.40437       23.83055
C         77.30091       23.94604       24.50304
N         76.25367       23.48358       23.78032
O         77.22315       23.98223       25.72199
H         79.97646       24.60313       20.72599
H         81.24327       23.82435       23.36765
H         79.30756       22.37944       23.72438
H         78.52215       22.96083       22.20599
H         78.35380       25.25990       23.15482
H         79.28773       24.74317       24.60989
H         76.29451       23.44156       22.75200
H         75.39764       23.15869       24.25377
N         82.16347       21.63131       22.30599
C         82.62675       20.37912       21.70405
C         81.54857       19.30461       21.86576
O         81.26145       18.91178       22.98852
C         83.96778       19.88916       22.33674
C         84.47019       18.60911       21.64246
C         85.07859       20.95160       22.24782
H         82.63107       21.99135       23.15043
H         82.82173       20.57144       20.62778
H         83.79931       19.66609       23.41379
H         85.41308       18.25823       22.11314
H         83.73188       17.78786       21.72965
H         84.66414       18.80171       20.56494
H         85.30768       21.19752       21.19296
H         84.80438       21.88470       22.77807
H         86.00701       20.56974       22.72371
N         80.89658       18.80332       20.77897
C         79.84810       17.78020       20.85812
C         80.44977       16.40400       21.12192
O         81.66551       16.27589       21.13601
C         79.06405       17.80698       19.52083
C         77.82684       16.94692       19.42236
N         76.80733       17.08444       20.30021
O         77.72556       16.14180       18.50946
H         81.11821       19.21328       19.86017
H         79.14705       18.05746       21.67515
H         79.75515       17.55821       18.68539
H         78.72374       18.84526       19.38666
H         76.85729       17.76759       21.06820
H         75.96127       16.50233       20.20790
N         79.65196       15.31467       21.32426
C         80.18465       13.95705       21.41841
C         80.84001       13.54900       20.10114
O         81.77525       12.76186       20.10821
C         79.09522       12.91840       21.79972
C         78.06082       12.67571       20.71822
C         78.24745       11.62523       19.80127
C         76.91420       13.48020       20.60701
C         77.31960       11.39819       18.78247
C         75.98374       13.24851       19.58814
C         76.18481       12.21218       18.67036
O         75.28362       12.00725       17.68866
H         78.63871       15.45687       21.39497
H         80.93938       13.93874       22.23592
H         78.59850       13.18646       22.75777
H         79.61757       11.95558       21.99681
H         79.12131       10.98886       19.86649
H         76.73222       14.28320       21.30742
H         77.48651       10.59162       18.07967
H         75.10550       13.87705       19.51091
H         75.39036       11.30456       17.03139
N         80.31471       13.99131       18.92121
C         80.78532       13.59942       17.59624
C         82.08829       14.31241       17.21045
O         82.59980       14.07154       16.12732
C         79.65582       13.91883       16.58179
C         79.79231       13.19472       15.23327
C         78.62829       13.47463       14.31786
O         78.57637       12.92644       13.22899
O         77.63945       14.31772       14.67908
H         79.48350       14.59002       18.97315
H         80.92137       12.49583       17.60007
H         79.57502       15.02101       16.44296
H         78.69788       13.55636       17.01957
H         79.82294       12.09978       15.42687
H         80.72036       13.49268       14.70954
N         82.67213       15.21862       18.04641
C         83.85857       16.00293       17.73469
C         85.02299       15.61308       18.63746
O         86.06091       16.25571       18.55170
C         83.50114       17.50024       17.89032
C         82.42002       17.92180       16.87599
C         82.00344       19.36090       17.00666
O         82.55061       20.16493       17.93610
O         81.14596       19.80689       16.26176
H         82.25700       15.39917       18.96418
H         84.20232       15.83419       16.69042
H         84.40581       18.12327       17.72484
H         83.13771       17.68514       18.92606
H         81.51403       17.29587       17.01507
H         82.80868       17.76158       15.84703
N         84.95108       14.54194       19.48434
C         86.04998       14.10491       20.32114
H         86.94178       14.75910       20.23161
H         85.72268       14.09491       21.38136
H         86.34206       13.07370       20.02833
H         84.09593       13.97237       19.53214
Ca        79.75821       22.53873       17.80009
O         82.19977       24.57274       19.00685
H         82.69872       25.36228       18.67781
H         82.63416       24.35335       19.86628
O         77.88748       20.54707       17.95178
H         77.05117       20.45153       17.43627
H         77.60063       20.87507       18.84138
O         84.08658       22.30671       19.16157
H         84.77749       22.97135       19.40582
H         84.59719       21.49203       18.92761

Ca 1.0



