%chk=holoCaM-CaMKII.loop3.water2.frame370.chk
%nprocshared=20
%mem=10GB
%nosave
#b3lyp/svp scf=(tight,noincore,xqc) Test 
#IOP(5/87=12) Density=Current Pop=(MK,readradii) iop(6/33=2) iop(6/42=6)

holoCaM-CaMKII.loop3.water2.frame370 

   0  1 
C         42.29912       76.50113       29.47247
C         41.98103       77.42218       28.33739
O         42.41577       78.56606       28.35578
H         41.35622       76.17365       29.95649
H         42.84575       75.61450       29.08796
H         42.93407       77.01401       30.22632
N         41.23496       76.97822       27.28800
C         40.93555       77.82843       26.14934
C         40.01529       78.97151       26.57480
O         38.91461       78.70526       27.03766
C         40.28313       77.01701       25.00159
C         40.22363       77.83389       23.74067
O         39.70749       77.39337       22.73349
O         40.82094       79.03383       23.72900
H         40.91562       75.99698       27.28548
H         41.91098       78.21095       25.76808
H         39.26452       76.68867       25.30192
H         40.89478       76.11584       24.77809
N         40.40958       80.27043       26.44991
C         39.59182       81.40387       26.86878
C         38.28842       81.48055       26.08835
O         37.23924       81.50351       26.71645
C         40.37185       82.73217       26.71414
C         39.60455       83.91572       27.33353
C         40.35378       85.24417       27.17176
C         39.57399       86.38365       27.84860
N         40.24946       87.66866       27.67353
H         41.34639       80.45791       26.07567
H         39.37258       81.28372       27.95409
H         40.57783       82.92868       25.63891
H         41.34241       82.64089       27.24894
H         39.45421       83.71135       28.41679
H         38.60952       84.01776       26.84945
H         40.47031       85.46679       26.08836
H         41.36304       85.16766       27.63244
H         39.47491       86.16767       28.93626
H         38.55237       86.44916       27.41194
H         41.20660       87.63485       28.09324
H         40.31530       87.90317       26.65644
H         39.69487       88.41334       28.15525
N         38.27953       81.54943       24.72267
C         37.05908       81.76021       23.94287
C         36.60638       80.51183       23.18825
O         35.63468       80.60138       22.45016
C         37.20619       83.02167       23.05629
C         38.16716       82.91646       21.90432
O         38.77676       81.75876       21.60667
O         38.36681       83.89302       21.20017
H         39.17467       81.46921       24.21836
H         36.21477       81.99586       24.62683
H         37.52793       83.86183       23.71126
H         36.21482       83.28662       22.62960
N         37.17139       79.28882       23.42031
C         36.60384       78.04819       22.90658
C         36.80026       77.78795       21.42557
O         36.22362       76.82177       20.94626
H         37.93410       79.20833       24.10524
H         35.51649       78.04474       23.14018
H         37.05350       77.18776       23.44705
N         37.59696       78.56159       20.63392
C         37.73288       78.32938       19.19232
C         38.37803       76.99262       18.81458
O         38.40163       76.69120       17.62837
C         38.54088       79.46597       18.52870
C         40.01039       79.40480       18.87827
N         40.94207       79.26034       17.91010
O         40.36508       79.47549       20.04325
H         38.07452       79.36690       21.05797
H         36.70420       78.35963       18.76926
H         38.12109       80.44969       18.82932
H         38.42899       79.38233       17.42544
H         40.67803       79.19313       16.91627
H         41.93676       79.21802       18.16355
N         38.96395       76.17153       19.73444
C         39.62869       74.92668       19.38813
C         41.10283       74.89618       19.76138
O         41.70454       73.85945       19.52571
H         38.94671       76.42463       20.72573
H         39.55615       74.71582       18.30002
H         39.11374       74.09852       19.92250
N         41.75660       75.94331       20.36364
C         43.16591       75.83801       20.76729
C         43.56912       76.86073       21.82767
O         42.77573       77.70673       22.20231
C         44.11523       75.82067       19.53597
C         44.19578       77.09222       18.71118
C         44.72725       78.28196       19.24561
C         43.79804       77.07813       17.36114
C         44.85568       79.42424       18.45017
C         43.92830       78.22349       16.56739
C         44.45813       79.39924       17.10768
O         44.58299       80.49390       16.33014
H         41.22915       76.79359       20.59669
H         43.27984       74.86423       21.29419
H         43.80806       74.97970       18.88137
H         45.14639       75.57767       19.86442
H         45.06728       78.33492       20.26764
H         43.39636       76.17726       16.91504
H         45.27506       80.32605       18.87518
H         43.62148       78.19548       15.52955
H         44.94790       81.32517       16.66650
N         44.81508       76.79247       22.38546
C         45.26894       77.62030       23.49934
C         46.41712       78.50473       23.03446
O         47.37646       77.98837       22.47943
C         45.75441       76.70222       24.66739
C         44.65720       75.69530       25.10250
C         46.21585       77.55646       25.86946
C         45.17577       74.63418       26.08045
H         45.47539       76.08546       22.03237
H         44.44268       78.25640       23.88578
H         46.62244       76.11323       24.29418
H         44.29472       75.13681       24.21402
H         43.79251       76.23298       25.54872
H         45.36934       78.15544       26.27039
H         46.63106       76.93213       26.68365
H         47.03005       78.24554       25.57466
H         44.36631       73.91025       26.30891
H         46.02286       74.07769       25.62283
H         45.50860       75.07624       27.03987
N         46.41949       79.84030       23.31879
C         47.54584       80.72445       23.02510
C         48.26924       81.09123       24.31027
O         47.85175       80.67646       25.37718
C         47.04879       81.98320       22.29723
O         46.48907       81.64229       21.05964
H         45.62865       80.23305       23.84782
H         48.29461       80.21064       22.38446
H         47.87228       82.71817       22.14772
H         46.27930       82.50179       22.90983
H         47.22249       81.67406       20.39111
N         49.41249       81.83129       24.26754
C         50.20379       82.16958       25.44927
C         49.43132       83.04619       26.41569
O         49.34077       82.70286       27.58600
C         51.48869       82.88959       25.03013
H         49.75743       82.13333       23.34380
H         50.51298       81.23163       25.96420
H         51.25955       83.83765       24.49912
H         52.10697       83.11555       25.92525
H         52.07995       82.23542       24.35438
N         48.83785       84.19398       25.98256
C         48.07491       85.09608       26.84383
C         46.98885       84.35365       27.58865
O         46.86308       84.51718       28.79416
C         47.43352       86.20354       25.99765
H         48.90639       84.41781       24.97724
H         48.75345       85.57791       27.58175
H         48.21904       86.78137       25.46705
H         46.73929       85.77145       25.24353
H         46.86178       86.90123       26.64666
N         46.19394       83.48103       26.91942
C         45.12794       82.70761       27.54209
C         45.67501       81.88508       28.69931
O         45.16520       82.00905       29.80405
C         44.44988       81.80789       26.49186
C         43.82632       82.63762       25.34068
C         43.13640       81.78029       24.32988
O         43.12125       80.56573       24.45448
O         42.52683       82.32960       23.26227
H         46.39330       83.34381       25.91860
H         44.35035       83.39978       27.93720
H         43.64524       81.22381       26.99271
H         45.19117       81.09056       26.07713
H         44.59087       83.21878       24.79228
H         43.08746       83.34942       25.76171
N         46.75171       81.06998       28.52489
C         47.37958       80.31460       29.58955
H         48.42694       80.66560       29.71361
H         46.85594       80.43250       30.56064
H         47.39610       79.23847       29.31962
H         47.18179       81.00953       27.59786
Ca        41.16214       80.78775       22.40409
O         41.10696       82.27639       19.42306
H         40.70047       82.21317       18.52314
H         40.62248       83.01519       19.86747
O         43.47729       81.58793       20.75598
H         44.03076       82.05840       20.08422
H         44.05842       80.87866       21.12869

Ca 1.0



