%chk=holoCaM-CaMKII.loop3.water2.frame275.chk
%nprocshared=20
%mem=10GB
%nosave
#b3lyp/svp scf=(tight,noincore,xqc) Test 
#IOP(5/87=12) Density=Current Pop=(MK,readradii) iop(6/33=2) iop(6/42=6)

holoCaM-CaMKII.loop3.water2.frame275 

   0  1 
C         59.30716       23.27142       79.75330
C         59.92734       22.36162       80.76858
O         60.97472       22.68913       81.30822
H         58.29498       23.57242       80.09476
H         59.92646       24.18159       79.60783
H         59.22138       22.73781       78.78301
N         59.32826       21.17572       81.06100
C         59.86212       20.21363       82.01073
C         60.27898       18.97072       81.24599
O         59.49683       18.43808       80.47104
C         58.82659       19.94298       83.11690
C         59.37348       19.04419       84.19240
O         58.77756       18.03077       84.51354
O         60.51090       19.37186       84.83056
H         58.45692       20.92928       80.56506
H         60.75733       20.63285       82.52257
H         57.89359       19.51642       82.68938
H         58.57769       20.91342       83.59870
N         61.53501       18.47684       81.41793
C         62.12528       17.36892       80.66841
C         61.22989       16.14111       80.64448
O         60.97891       15.61794       79.56766
C         63.50570       17.05764       81.28986
C         64.31329       15.98473       80.55130
C         65.68418       15.82243       81.22493
C         66.54213       14.76324       80.52601
N         67.83722       14.62528       81.19322
H         62.12107       18.93258       82.13539
H         62.28789       17.69501       79.61673
H         63.36998       16.74655       82.34860
H         64.10230       17.99771       81.27887
H         64.45510       16.29198       79.49215
H         63.76775       15.01653       80.57795
H         65.53788       15.52783       82.28764
H         66.22352       16.79568       81.19852
H         66.70448       15.05700       79.46509
H         66.01321       13.78484       80.54578
H         68.40373       13.89937       80.69840
H         68.35506       15.53399       81.16803
H         67.69993       14.32768       82.18674
N         60.68668       15.65510       81.79096
C         59.83250       14.46438       81.84364
C         58.37016       14.77506       82.16609
O         57.57562       13.84353       82.15652
C         60.39581       13.43154       82.84899
C         60.43902       13.93250       84.27129
O         60.15865       15.22069       84.54380
O         60.70367       13.16248       85.17960
H         60.88440       16.18810       82.64504
H         59.81106       13.97359       80.84597
H         61.41300       13.10774       82.54429
H         59.73371       12.53720       82.82048
N         57.91911       16.03676       82.42011
C         56.50701       16.33395       82.61104
C         55.85828       15.71250       83.83933
O         54.63836       15.78158       83.90273
H         58.57450       16.82634       82.39378
H         55.96583       15.96842       81.71004
H         56.35142       17.43367       82.66116
N         56.55472       15.09621       84.84830
C         55.86569       14.42857       85.96034
C         54.98652       15.34608       86.82265
O         54.29768       14.81616       87.68446
C         56.81666       13.57077       86.85196
C         57.95283       14.25491       87.63834
N         58.19706       13.63501       88.93440
O         57.82751       15.62335       87.78282
H         57.58038       15.04783       84.79733
H         55.17351       13.69097       85.49686
H         57.30286       12.79243       86.22457
H         56.17545       13.02819       87.57804
H         58.53962       12.66186       88.78060
H         58.95539       14.16839       89.41993
N         54.93961       16.70236       86.66418
C         54.09982       17.58673       87.46762
C         54.92976       18.51739       88.33423
O         54.36567       19.37726       88.99257
H         55.53984       17.15651       85.96181
H         53.42347       17.01731       88.14272
H         53.46387       18.18135       86.77835
N         56.27661       18.34575       88.42804
C         57.17783       19.08956       89.28695
C         58.38993       19.50003       88.47530
O         58.99205       18.64015       87.84857
C         57.66319       18.15831       90.41695
C         56.53208       17.67262       91.28934
C         55.79039       18.57713       92.06787
C         56.21623       16.30440       91.33965
C         54.75120       18.11914       92.88346
C         55.17508       15.84948       92.15279
C         54.43957       16.75614       92.92939
O         53.43591       16.32994       93.72225
H         56.70460       17.58395       87.90748
H         56.68014       19.97129       89.74597
H         58.40018       18.69050       91.05745
H         58.18335       17.28668       89.96221
H         56.02026       19.63503       92.04965
H         56.77293       15.58831       90.74819
H         54.18930       18.82471       93.48249
H         54.94310       14.79229       92.17944
H         53.19129       15.39551       93.78438
N         58.84874       20.77919       88.49323
C         60.08313       21.17805       87.82265
C         61.12480       21.51838       88.87104
O         60.83701       22.27054       89.79036
C         59.85119       22.30143       86.77278
C         61.18797       22.59479       86.03573
C         59.23783       23.57701       87.37794
C         61.04214       23.49991       84.81586
H         58.34649       21.47218       89.06579
H         60.48846       20.32708       87.23608
H         59.13032       21.89748       86.02665
H         61.61363       21.63768       85.66511
H         61.92319       23.04549       86.73663
H         58.26255       23.35618       87.85584
H         59.91769       24.03072       88.12755
H         59.03051       24.32694       86.58954
H         60.33592       23.04863       84.08820
H         60.69533       24.51279       85.09968
H         62.03032       23.60310       84.32255
N         62.38076       20.99594       88.76628
C         63.43987       21.23277       89.73804
C         64.46644       22.19566       89.17377
O         64.30540       22.65992       88.05851
C         64.07557       19.88728       90.13611
O         64.72882       19.29439       89.04265
H         62.61379       20.43786       87.93269
H         63.02520       21.70537       90.65408
H         63.29902       19.20585       90.55579
H         64.82247       20.03044       90.94332
H         64.10023       18.63961       88.64363
N         65.53920       22.57270       89.92264
C         66.54365       23.52691       89.46293
C         67.27023       23.02709       88.22680
O         67.31140       23.74120       87.23439
C         67.55658       23.79619       90.58155
H         65.63014       22.18148       90.87195
H         66.04719       24.49681       89.23341
H         68.30229       24.54932       90.24899
H         67.03086       24.19722       91.47468
H         68.08756       22.86486       90.87204
N         67.86932       21.80342       88.22197
C         68.62490       21.27082       87.09020
C         67.79259       21.22542       85.82324
O         68.23210       21.75043       84.80982
C         69.13793       19.86394       87.41643
H         67.78308       21.22330       89.07154
H         69.51534       21.91497       86.91154
H         69.74046       19.47090       86.56954
H         69.78527       19.89744       88.31857
H         68.29269       19.16895       87.60953
N         66.56532       20.63449       85.81907
C         65.70489       20.56564       84.63760
C         65.48118       21.95113       84.05026
O         65.65083       22.11416       82.84987
C         64.35700       19.88510       84.97277
C         64.54715       18.40849       85.37321
C         63.23350       17.73276       85.64662
O         62.89058       16.76682       84.98443
O         62.43853       18.16891       86.64085
H         66.22015       20.25097       86.71120
H         66.19685       19.94586       83.85404
H         63.71220       19.90906       84.06582
H         63.84250       20.44538       85.78326
H         65.17245       18.32209       86.28476
H         65.06671       17.87497       84.54636
N         65.17957       23.00900       84.85122
C         65.03835       24.36985       84.37318
H         64.05462       24.77357       84.68520
H         65.83484       24.99946       84.82440
H         65.11976       24.44286       83.26864
H         65.10028       22.85583       85.86044
Ca        59.62567       16.04462       86.52995
O         61.01784       17.16417       89.36595
H         60.61424       16.39008       89.83321
H         60.95586       17.90778       90.01657
O         61.98342       14.52723       88.14245
H         61.93248       14.30248       87.18047
H         61.27296       13.98072       88.56234

Ca 1.0



