%chk=holoCaM-CaMKII.loop2.water2.frame251.chk
%nprocshared=20
%mem=10GB
%nosave
#b3lyp/svp scf=(tight,noincore,xqc) Test 
#IOP(5/87=12) Density=Current Pop=(MK,readradii) iop(6/33=2) iop(6/42=6)

holoCaM-CaMKII.loop2.water2.frame251 

   -2  1 
C        100.29384       13.20746       52.61608
C        100.67595       12.49972       51.34009
O        100.93186       11.30770       51.36870
H         99.36845       12.75170       53.03038
H        101.10656       13.13187       53.36537
H        100.08133       14.28493       52.43792
N        100.67476       13.18128       50.16588
C        100.86554       12.57910       48.84705
C        102.30393       12.15873       48.55146
O        103.19332       12.98964       48.67282
C        100.42228       13.61760       47.79977
C        100.50488       13.08540       46.41087
O        101.18237       13.66502       45.57829
O         99.83432       11.96700       46.08075
H        100.41457       14.17973       50.20818
H        100.18257       11.70624       48.74678
H        101.04463       14.53588       47.88652
H         99.36573       13.89693       47.99344
N        102.58105       10.91175       48.04774
C        103.91322       10.50311       47.58939
C        103.96617       10.10206       46.10116
O        105.06539        9.85383       45.62495
C        104.39965        9.32345       48.43963
H        101.81123       10.23251       47.96421
H        104.63000       11.34112       47.72726
H        104.38908        9.59310       49.51663
H        103.74247        8.43925       48.28697
H        105.43915        9.04314       48.16213
N        102.84743        9.94939       45.32566
C        102.86669        9.42365       43.94619
C        102.02200       10.23591       42.95006
O        101.99677        9.86570       41.78400
C        102.41350        7.94172       43.95435
C        101.20677        7.74304       44.81505
O        101.28659        7.03277       45.80553
O        100.10647        8.48555       44.63302
H        101.92855       10.09527       45.76242
H        103.90034        9.42812       43.53577
H        103.23259        7.33086       44.39486
H        102.23947        7.56793       42.92304
N        101.33661       11.35669       43.30673
C        100.58899       12.19423       42.37163
C         99.30901       11.59430       41.79727
O         98.68663       12.27114       40.99079
H        101.41682       11.68402       44.26832
H        101.26536       12.48555       41.53877
H        100.28811       13.12658       42.89723
N         98.84064       10.36013       42.14294
C         97.63816        9.75671       41.55602
C         96.30628       10.42436       41.95091
O         95.27475        9.95027       41.49405
C         97.59296        8.23673       41.85391
C         97.40980        7.84408       43.29764
N         97.30216        6.53588       43.61852
O         97.35463        8.68714       44.17822
H         99.39699        9.79741       42.79147
H         97.73590        9.82468       40.44943
H         98.53355        7.77092       41.48555
H         96.75271        7.79363       41.27691
H         97.34731        5.80875       42.89021
H         97.16200        6.24720       44.59378
N         96.23407       11.52723       42.75338
C         94.98407       12.21030       43.08075
C         94.12729       11.54364       44.15329
O         93.10540       12.12029       44.49668
H         97.10087       11.96939       43.07987
H         94.39461       12.37722       42.15156
H         95.24122       13.21205       43.48670
N         94.46759       10.36066       44.73917
C         93.70124        9.71009       45.80402
C         94.58203        9.39179       47.00239
O         95.64669        8.81973       46.82613
C         93.08873        8.37983       45.30151
C         91.91823        8.61888       44.35033
O         94.05346        7.58460       44.65801
H         95.30598        9.87633       44.40802
H         92.85316       10.34158       46.15202
H         92.64883        7.82806       46.16834
H         94.53013        7.07088       45.35989
H         91.48266        7.64273       44.04721
H         91.12402        9.19973       44.86948
H         92.24286        9.17158       43.44575
N         94.12903        9.61790       48.27067
C         94.80649        9.09835       49.46035
C         94.88728        7.57565       49.37315
O         93.86701        6.92596       49.18648
C         94.07987        9.55402       50.77411
C         94.26583       11.08676       50.95799
C         94.62300        8.79981       52.00786
C         93.60448       11.66803       52.21084
H         93.22302       10.09659       48.38977
H         95.83754        9.50091       49.51028
H         92.99714        9.30825       50.69715
H         93.84307       11.61672       50.07933
H         95.35120       11.32234       51.01457
H         94.07889        9.07709       52.93151
H         94.46654        7.70762       51.90455
H         95.70064        9.00744       52.14634
H         92.51394       11.46548       52.20687
H         94.05749       11.26025       53.13786
H         93.76821       12.76615       52.23337
N         96.08162        6.94939       49.58669
C         96.26003        5.50130       49.64555
C         96.40426        5.08085       51.09587
O         96.35017        5.93858       51.96396
C         97.52450        5.08673       48.86173
C         97.45305        5.44568       47.41031
O         97.36392        6.73359       47.03965
O         97.51542        4.57401       46.55824
H         96.89632        7.52928       49.82950
H         95.37019        4.97513       49.23397
H         97.66936        3.98874       48.94351
H         98.41748        5.58478       49.30079
N         96.55489        3.77512       51.45320
C         96.67011        3.36419       52.84759
C         97.93526        3.93836       53.50394
O         97.77778        4.55379       54.54771
C         96.56285        1.83275       53.00673
C         96.51658        1.43457       54.46178
C         97.58503        0.72809       55.03709
C         95.40388        1.76619       55.25695
C         97.54336        0.36369       56.38576
C         95.36218        1.39059       56.60269
C         96.43202        0.69151       57.16716
H         96.54797        3.05147       50.71697
H         95.78189        3.77080       53.38458
H         97.39502        1.31960       52.50576
H         95.63569        1.46399       52.51597
H         98.45434        0.47009       54.44523
H         94.56481        2.30504       54.83398
H         98.37348       -0.17369       56.82460
H         94.50006        1.64095       57.20773
H         96.39987        0.40362       58.20976
N         99.20701        3.82819       52.97452
C        100.41080        4.40034       53.59429
C        100.40304        5.90756       53.83102
O        101.37946        6.41580       54.36717
C        101.52149        4.10429       52.57701
C        101.04645        2.82120       51.95387
C         99.55937        3.10496       51.76861
H        100.57400        3.86198       54.55413
H        101.49017        4.86569       51.76087
H        102.54809        4.08904       53.00214
H        101.57804        2.51989       51.02673
H        101.16470        2.01653       52.71640
H         99.36064        3.75479       50.88996
H         99.07351        2.12837       51.64386
N         99.35809        6.68614       53.44609
C         99.28891        8.12672       53.60454
C         98.28221        8.43303       54.69256
O         98.63223        9.09629       55.65783
C         98.86953        8.75952       52.26556
C         99.81817        8.37012       51.12379
C         99.35167        8.88007       49.79555
O        100.00558        8.48411       48.70031
O         98.36956        9.59412       49.68537
H         98.55421        6.25376       52.98685
H        100.27491        8.54964       53.90294
H         98.81747        9.86533       52.36492
H         97.86239        8.38313       51.99399
H         99.85097        7.26297       51.03762
H        100.84857        8.73222       51.32227
N         97.01870        7.92858       54.62818
C         96.04616        8.11672       55.67747
H         95.11079        7.57401       55.41905
H         96.43866        7.70121       56.63007
H         95.81807        9.19496       55.79623
H         96.73869        7.35805       53.82458
Ca        99.26819        8.92987       46.64053
O         97.51998       12.20724       48.84658
H         97.41198       13.02301       49.39538
H         96.74019       11.64626       49.07866
O         97.19269       11.55042       45.59603
H         96.71805       11.50385       46.46099
H         97.30757       12.51968       45.42728

Ca 1.0



