%chk=holoCaM.loop1.water2.frame363.chk
%nprocshared=20
%mem=10GB
%nosave
#b3lyp/svp scf=(tight,noincore,xqc) Test 
#IOP(5/87=12) Density=Current Pop=(MK,readradii) iop(6/33=2) iop(6/42=6)

holoCaM.loop1.water2.frame363 

   0  1 
C        115.17524        4.12453       91.23099
C        115.27616        2.81888       91.95610
O        115.23817        2.81436       93.17882
H        116.08280        4.28442       90.61475
H        114.27858        4.11220       90.57554
H        115.07230        4.96375       91.95254
N        115.36698        1.65127       91.25877
C        115.36689        0.36111       91.93105
C        116.65247        0.17295       92.72429
O        117.72114        0.12334       92.12993
C        115.17257       -0.78390       90.92251
C        114.81646       -2.06794       91.61244
O        114.56310       -3.05365       90.94849
O        114.67603       -2.11288       92.95118
H        115.35750        1.68919       90.22722
H        114.47438        0.35934       92.59857
H        116.07556       -0.90720       90.28422
H        114.31219       -0.53668       90.26234
N        116.61866        0.12440       94.08409
C        117.82658        0.12361       94.90450
C        118.55842       -1.21289       94.96008
O        119.71135       -1.18808       95.36941
C        117.51057        0.60681       96.33652
C        117.01006        2.06158       96.33110
C        116.69771        2.56321       97.74276
C        116.28778        4.04188       97.70349
N        115.98662        4.53994       99.04390
H        115.70427        0.24499       94.53872
H        118.53247        0.86391       94.46247
H        118.43600        0.56849       96.95246
H        116.75487       -0.06507       96.79997
H        116.09210        2.15854       95.71416
H        117.80320        2.70199       95.88581
H        117.59930        2.45373       98.38364
H        115.87366        1.95698       98.17822
H        115.39253        4.16784       97.05419
H        117.12048        4.64136       97.27123
H        115.73178        5.55215       98.98189
H        115.18223        4.01077       99.45047
H        116.82396        4.43844       99.66216
N        117.98073       -2.40960       94.62985
C        118.71745       -3.68049       94.70131
C        118.77609       -4.41138       93.36262
O        119.42226       -5.44845       93.29571
C        118.16948       -4.57563       95.83618
C        116.78158       -5.11815       95.64081
O        116.15131       -4.89546       94.62242
O        116.23973       -5.89437       96.59830
H        116.98823       -2.42507       94.35534
H        119.77625       -3.48357       94.97645
H        118.19421       -3.99131       96.78173
H        118.84770       -5.44789       95.96239
N        118.17153       -3.91774       92.24525
C        118.30613       -4.51857       90.93207
C        117.67030       -5.88152       90.80581
O        118.35221       -6.81131       90.39881
H        117.64156       -3.03708       92.29104
H        119.38263       -4.56547       90.65639
H        117.79985       -3.86147       90.19191
N        116.34033       -6.04806       91.05150
C        115.60863       -7.26809       90.70722
C        114.55520       -6.99772       89.62690
O        113.93023       -7.94961       89.17913
C        115.01296       -7.94463       91.96651
C        113.99401       -7.14736       92.73357
O        113.66024       -6.03587       92.37248
O        113.43671       -7.67368       93.84019
H        115.81969       -5.24813       91.43625
H        116.30632       -8.01110       90.26360
H        115.84601       -8.18675       92.65999
H        114.53141       -8.89971       91.66341
N        114.30826       -5.73776       89.15208
C        113.36735       -5.42497       88.09146
C        112.12767       -4.70218       88.58807
O        111.32577       -4.32158       87.74908
H        114.81366       -4.93485       89.53520
H        113.01820       -6.34396       87.57375
H        113.89683       -4.80257       87.33688
N        111.84513       -4.57082       89.92257
C        110.55649       -4.08390       90.42121
C        110.71191       -3.00096       91.49056
O        111.82054       -2.70517       91.90292
C        109.74268       -5.28539       90.96857
C        109.48003       -6.34845       89.88593
O        110.37473       -5.86471       92.08339
H        112.50710       -4.94209       90.60824
H        109.97501       -3.63546       89.58662
H        108.74739       -4.92215       91.30019
H        111.13013       -6.42224       91.76254
H        110.43172       -6.78629       89.51373
H        108.86682       -7.17179       90.30794
H        108.93653       -5.90025       89.02800
N        109.60556       -2.33428       91.94560
C        109.63268       -1.23305       92.91213
C        108.63328       -1.47341       94.04795
O        107.47593       -1.76771       93.79063
C        109.33998        0.11077       92.16913
C        110.56248        0.45556       91.26880
C        109.05229        1.26135       93.15579
C        110.44819        1.77229       90.49952
H        108.69444       -2.56628       91.52391
H        110.64095       -1.11985       93.36816
H        108.42613       -0.00651       91.54523
H        110.70695       -0.35593       90.52518
H        111.48093        0.51650       91.89596
H        108.78998        2.18983       92.61426
H        108.16394        1.03614       93.77993
H        109.92261        1.44889       93.81184
H        110.41134        2.64076       91.18929
H        111.35221        1.90361       89.86782
H        109.54893        1.76746       89.85059
N        109.01657       -1.21544       95.33548
C        108.13952       -1.23861       96.50859
C        107.97175        0.18708       97.04733
O        108.42876        1.12094       96.40865
C        108.73271       -2.18051       97.59311
C        108.81481       -3.63511       97.11477
O        109.98113       -1.71422       98.04946
H        109.98202       -0.90628       95.49506
H        107.12566       -1.61067       96.24500
H        108.05569       -2.20735       98.47062
H        110.68101       -2.01403       97.41491
H        107.80515       -4.00316       96.83379
H        109.48232       -3.71481       96.23753
H        109.21299       -4.27832       97.92830
N        107.30913        0.42852       98.21821
C        107.12829        1.76579       98.79258
C        108.45082        2.46909       99.06906
O        108.58866        3.60495       98.63961
C        106.27751        1.72403      100.08616
C        104.83054        1.30902       99.79276
O        106.85326        0.85131      101.02415
H        106.91242       -0.37286       98.72554
H        106.56653        2.39823       98.06727
H        106.24674        2.76032      100.50117
H        106.48468        1.09811      101.91226
H        104.37129        2.02355       99.07543
H        104.77752        0.28778       99.36413
H        104.23522        1.33292      100.72955
N        109.45254        1.90109       99.80269
C        110.70599        2.61222      100.07651
C        111.57961        2.82455       98.83476
O        112.58895        3.50244       98.96363
C        111.50982        1.92580      101.20415
C        110.74288        2.00481      102.53701
C        111.57920        1.49292      103.71714
C        110.83831        1.60124      105.06465
N        110.51654        2.98627      105.42371
H        109.30489        0.96110      100.20021
H        110.45058        3.62866      100.45338
H        112.46491        2.48019      101.34277
H        111.75325        0.87363      100.93804
H        109.79637        1.42679      102.47299
H        110.49941        3.07220      102.71573
H        112.52717        2.07108      103.78263
H        111.83429        0.42539      103.54126
H        111.49783        1.17480      105.85246
H        109.90497        0.99696      105.03558
H        109.80093        3.38471      104.77563
H        110.11271        3.00287      106.38784
H        111.38004        3.57638      105.41101
N        111.24873        2.33157       97.60430
C        112.01417        2.60205       96.38596
C        111.22009        3.47752       95.41244
O        111.76648        3.84340       94.38061
C        112.39394        1.27403       95.69775
C        113.15826        0.31985       96.62557
C        113.41636       -1.00057       95.95672
O        112.38898       -1.73492       95.49295
O        114.55168       -1.43460       95.86239
H        110.41037        1.75394       97.51067
H        112.94453        3.15909       96.63042
H        113.00322        1.47856       94.78904
H        111.45836        0.77627       95.37947
H        112.54961        0.11460       97.53051
H        114.11532        0.78833       96.93746
N        109.93609        3.86253       95.66630
C        109.17012        4.71462       94.78480
H        108.15313        4.87247       95.20908
H        109.66537        5.70244       94.68641
H        109.06423        4.24327       93.78819
H        109.46280        3.54745       96.51224
Ca       113.69746       -3.84104       93.99873
O        111.16725       -5.13661       94.75336
H        110.66537       -5.75226       95.34398
H        110.47338       -4.57660       94.32266
O        113.30076       -4.83076       96.79975
H        113.01334       -5.21623       97.66466
H        114.01176       -4.18372       97.03652

Ca 1.0



