%chk=holoCaM-CaMKII.loop4.water1.frame476.chk
%nprocshared=20
%mem=10GB
%nosave
#b3lyp/svp scf=(tight,noincore,xqc) Test 
#IOP(5/87=12) Density=Current Pop=(MK,readradii) iop(6/33=2) iop(6/42=6)

holoCaM-CaMKII.loop4.water1.frame476 

   -3  1 
C         90.01938       59.91137       62.44263
C         90.74020       59.01419       61.48253
O         90.48522       57.81841       61.46528
H         89.29546       59.33535       63.05651
H         90.75313       60.40409       63.11424
H         89.46652       60.69019       61.87491
N         91.65151       59.54479       60.62455
C         92.35840       58.75294       59.62824
C         93.28193       57.73249       60.28358
O         94.22761       58.11199       60.96000
C         93.12329       59.69364       58.68339
C         93.92498       58.94688       57.66937
O         95.11012       59.18841       57.55688
O         93.35882       58.00445       56.89610
H         91.80933       60.56489       60.65857
H         91.59939       58.22375       59.00785
H         93.80341       60.35696       59.26387
H         92.38597       60.33501       58.15482
N         93.03716       56.40186       60.11879
C         93.85563       55.33996       60.69992
C         95.11931       55.16041       59.85973
O         96.21738       55.22422       60.39275
C         93.04328       53.99909       60.77269
C         91.72493       54.19488       61.58273
C         93.89457       52.87001       61.38653
C         90.80020       52.97335       61.58705
H         92.20533       56.13398       59.57296
H         94.11127       55.60116       61.75211
H         92.78620       53.68692       59.74375
H         91.12704       55.01775       61.14148
H         91.96176       54.47658       62.63144
H         94.17067       53.11372       62.43402
H         93.34900       51.90505       61.37201
H         94.82042       52.70728       60.79768
H         91.26135       52.10781       62.10138
H         89.86397       53.22424       62.13047
H         90.53289       52.68494       60.54919
N         95.00758       54.88821       58.52695
C         96.12068       54.54847       57.62977
C         97.11756       55.66941       57.39442
O         98.08907       55.42272       56.69039
C         95.55473       54.16857       56.23482
C         94.64772       52.98602       56.32618
O         95.10620       51.87266       56.52296
O         93.32430       53.18178       56.42261
H         94.05186       54.86398       58.14601
H         96.66481       53.67748       58.05724
H         96.34915       53.94343       55.49032
H         94.97894       55.03824       55.85029
N         96.93607       56.93475       57.86296
C         97.81173       58.02943       57.47238
C         97.69410       58.39160       55.99086
O         98.42080       59.27983       55.56884
H         96.14767       57.14762       58.48666
H         98.86226       57.76186       57.71905
H         97.55586       58.93564       58.06102
N         96.82832       57.75836       55.13497
C         96.77698       58.04385       53.70192
C         96.24148       59.43496       53.36831
O         96.38857       59.84285       52.22485
C         96.01135       56.93559       52.93076
C         94.56595       56.73927       53.31364
O         93.90756       55.87963       52.75069
O         93.99173       57.47174       54.28095
H         96.22783       57.00657       55.48776
H         97.82509       57.99748       53.33019
H         96.53253       55.96895       53.10608
H         96.05880       57.15509       51.84246
N         95.60960       60.21498       54.29308
C         95.17666       61.58222       54.03889
C         93.67246       61.75639       54.05785
O         93.23372       62.89537       53.97543
H         95.43135       59.84110       55.23127
H         95.53456       61.95204       53.05404
H         95.62989       62.22762       54.82101
N         92.81760       60.69396       54.08517
C         91.36628       60.82690       53.99568
C         90.66500       60.06628       55.09874
O         91.31161       59.33428       55.83211
C         90.90154       60.41395       52.57280
C         91.40972       59.06654       52.00092
C         90.78608       57.81757       52.57631
N         90.10013       56.96981       51.77209
O         90.92993       57.53964       53.75532
H         93.20679       59.74506       54.09262
H         91.07060       61.89066       54.13033
H         91.32956       61.18794       51.89822
H         89.79637       60.47989       52.47701
H         92.51400       59.00040       52.08360
H         91.18512       59.08535       50.91274
H         89.98368       57.16485       50.76694
H         89.69470       56.10198       52.14714
N         89.32278       60.21155       55.28634
C         88.57068       59.44534       56.27102
C         87.49847       58.68756       55.51911
O         86.55257       59.30096       55.04103
C         87.98193       60.37418       57.37120
C         87.15648       59.58788       58.40521
C         89.10449       61.13017       58.10118
H         88.80661       60.88020       54.69290
H         89.23716       58.71097       56.77710
H         87.31469       61.12518       56.89247
H         87.78770       58.83549       58.92432
H         86.73684       60.28131       59.16595
H         86.30296       59.06962       57.92208
H         89.69126       61.74924       57.39083
H         88.67651       61.81123       58.86776
H         89.79142       60.41714       58.60469
N         87.62267       57.34771       55.31386
C         86.63990       56.56894       54.56675
C         85.33497       56.49652       55.35177
O         85.32343       56.87927       56.51374
C         87.24789       55.17747       54.26694
C         86.40531       54.27856       53.40319
N         86.08142       53.03389       53.82309
O         86.04318       54.66021       52.30042
H         88.47254       56.88046       55.66035
H         86.46138       57.08632       53.59731
H         87.49328       54.66984       55.22317
H         88.20237       55.33739       53.72453
H         86.40896       52.68569       54.73463
H         85.51882       52.40715       53.22998
N         84.17651       56.06242       54.77470
C         82.92089       56.00195       55.52093
C         83.00573       54.99494       56.65097
O         82.37897       55.20819       57.67992
C         81.72429       55.67425       54.60683
C         80.43656       55.59896       55.40200
C         79.97840       56.70764       56.13852
C         79.70184       54.40248       55.44118
C         78.81695       56.61299       56.91009
C         78.53738       54.31262       56.20896
C         78.09377       55.41708       56.95031
O         76.97952       55.33970       57.70525
H         84.18004       55.80260       53.77783
H         82.74158       57.00931       55.95770
H         81.91874       54.70587       54.09507
H         81.62959       56.46134       53.82807
H         80.52575       57.64139       56.13099
H         80.03497       53.53436       54.88645
H         78.48298       57.46908       57.48311
H         77.98581       53.38151       56.23275
H         76.45478       54.52874       57.76577
N         83.76447       53.87354       56.53156
C         83.96397       52.94223       57.63119
C         84.65343       53.68023       58.76821
O         84.18521       53.63728       59.89673
C         84.80473       51.73857       57.14447
C         84.85525       50.59622       58.16721
C         85.58611       49.41163       57.59832
O         86.88098       49.51913       57.24404
O         85.00792       48.34612       57.45116
H         84.24602       53.69669       55.63824
H         82.97631       52.54562       57.95642
H         85.83523       52.06380       56.88406
H         84.32222       51.33428       56.22633
H         83.81425       50.29192       58.41648
H         85.36123       50.92600       59.09859
N         85.76935       54.41850       58.50331
C         86.53493       55.14622       59.51530
C         85.77910       56.32775       60.11579
O         86.27866       56.90503       61.07171
C         87.88209       55.64180       58.92801
C         88.65827       54.46599       58.32147
C         90.03288       54.79992       57.86635
O         90.95538       54.13667       58.30079
O         90.29872       55.73256       56.93306
H         86.09190       54.43384       57.52699
H         86.76976       54.42734       60.33227
H         88.48358       56.09852       59.74597
H         87.71003       56.41258       58.14455
H         88.14424       54.05465       57.43604
H         88.72919       53.65739       59.08154
N         84.59097       56.75921       59.60531
C         83.83113       57.86902       60.14160
H         82.81977       57.51131       60.42954
H         84.31110       58.32322       61.03257
H         83.72223       58.64953       59.35935
H         84.19681       56.29916       58.78236
Ca        92.31281       55.18612       56.12373
O         90.77133       53.71583       53.93128
H         90.84592       54.10089       53.02269
H         91.64357       53.27201       54.08147

Ca 1.0



