%chk=holoCaM-CaMKII.loop4.water1.frame482.chk
%nprocshared=20
%mem=10GB
%nosave
#b3lyp/svp scf=(tight,noincore,xqc) Test 
#IOP(5/87=12) Density=Current Pop=(MK,readradii) iop(6/33=2) iop(6/42=6)

holoCaM-CaMKII.loop4.water1.frame482 

   -3  1 
C         81.55844       68.50007       61.25913
C         81.74867       67.89491       59.90339
O         81.03268       66.96226       59.57098
H         80.51809       68.88019       61.34331
H         81.73279       67.72900       62.03676
H         82.25663       69.34682       61.42608
N         82.67841       68.39505       59.04476
C         82.82813       67.88936       57.69069
C         83.34345       66.45250       57.68681
O         84.33416       66.18564       58.35309
C         83.77918       68.78024       56.87133
C         83.61287       68.50668       55.40267
O         84.33481       69.06927       54.60255
O         82.58747       67.73535       54.97139
H         83.24882       69.20183       59.34332
H         81.82869       67.96495       57.21879
H         84.82990       68.61926       57.20019
H         83.53208       69.85499       57.01615
N         82.74923       65.49010       56.91917
C         83.15577       64.08505       56.91357
C         83.86526       63.69175       55.61207
O         84.35652       62.57397       55.55173
C         81.89293       63.20015       57.19357
C         81.13129       63.64063       58.47237
C         82.19051       61.68796       57.25736
C         81.92938       63.52330       59.77329
H         81.96382       65.75706       56.31332
H         83.90699       63.91157       57.71364
H         81.18342       63.35110       56.34847
H         80.20959       63.02639       58.56950
H         80.79912       64.69225       58.35844
H         82.95107       61.45847       58.03170
H         81.26003       61.12617       57.48419
H         82.54110       61.29651       56.28375
H         82.23145       62.47373       59.96401
H         82.82996       64.16905       59.74895
H         81.29301       63.85522       60.62007
N         84.02487       64.54596       54.55622
C         84.74167       64.16244       53.33734
C         86.03284       64.94865       53.17485
O         86.76003       64.66927       52.23066
C         83.86896       64.40171       52.08764
C         82.54118       63.69869       52.13018
O         81.64498       63.99265       53.09063
O         82.24951       62.88872       51.26531
H         83.64927       65.50073       54.60986
H         85.01945       63.08672       53.36852
H         84.42669       64.06976       51.18341
H         83.68994       65.48564       51.98071
N         86.37753       65.96571       54.01849
C         87.55315       66.79208       53.81502
C         87.49057       67.46447       52.46362
O         88.42155       67.32198       51.68407
H         85.77508       66.21124       54.81606
H         88.47478       66.17619       53.90589
H         87.58051       67.57527       54.60387
N         86.38583       68.18112       52.11179
C         86.20346       68.81640       50.80905
C         86.02781       70.32769       50.91293
O         85.99943       70.95653       49.86454
C         84.99225       68.16997       50.07634
C         83.68640       68.35833       50.80553
O         82.72222       67.43157       50.73517
O         83.59927       69.18152       51.69672
H         85.62170       68.23226       52.79364
H         87.10575       68.64255       50.18482
H         85.19124       67.07801       50.00525
H         84.88187       68.56122       49.04390
N         85.86371       70.98174       52.10802
C         85.69904       72.42690       52.18748
C         84.31477       72.87176       52.61688
O         84.08420       74.07312       52.56970
H         85.84530       70.45798       52.99291
H         85.86749       72.88834       51.19320
H         86.46359       72.84901       52.87449
N         83.34005       72.01308       53.04340
C         81.99628       72.48307       53.37689
C         81.22360       71.53607       54.26583
O         81.62396       70.40075       54.47286
C         81.20774       72.85258       52.08571
C         81.05818       71.74022       51.01329
C         80.02400       70.66562       51.29089
N         78.96492       70.50385       50.45932
O         80.15262       69.91027       52.23926
H         83.56956       71.02381       53.17280
H         82.11529       73.39041       54.01088
H         81.78223       73.66594       51.59637
H         80.20804       73.27446       52.32629
H         82.04344       71.27041       50.81148
H         80.75099       72.25172       50.07571
H         78.83460       71.10824       49.63487
H         78.27255       69.75961       50.62989
N         80.10383       71.99453       54.88391
C         79.27272       71.20090       55.77251
C         77.86539       71.24816       55.21498
O         77.32484       72.33983       55.08855
C         79.37232       71.76401       57.22048
C         78.47140       70.99708       58.20293
C         80.82656       71.69090       57.72547
H         79.83413       72.98099       54.73755
H         79.62144       70.14970       55.80734
H         79.05676       72.83108       57.22107
H         78.75888       69.92479       58.24905
H         78.56699       71.43111       59.22261
H         77.40566       71.07368       57.90471
H         81.17774       70.63664       57.75218
H         81.50718       72.27306       57.06967
H         80.90657       72.11468       58.74927
N         77.20816       70.10679       54.85851
C         75.85195       70.11685       54.31237
C         74.87548       69.66950       55.37357
O         75.30289       69.42276       56.48371
C         75.73449       69.32090       52.98756
C         75.64504       67.81435       53.11772
N         76.68489       67.06341       53.53779
O         74.60187       67.25900       52.80418
H         77.66379       69.20552       55.04631
H         75.56771       71.16088       54.05748
H         76.55046       69.60913       52.29328
H         74.78653       69.64862       52.50754
H         77.59032       67.48523       53.76864
H         76.58742       66.03875       53.60058
N         73.54206       69.59329       55.12751
C         72.55418       69.29299       56.16077
C         72.78001       67.94031       56.82413
O         72.81444       67.88707       58.04504
C         71.13862       69.37252       55.55999
C         70.06794       69.24458       56.61538
C         69.98212       70.18546       57.65783
C         69.14109       68.19247       56.56330
C         68.98906       70.07161       58.63246
C         68.14564       68.08242       57.53845
C         68.06691       69.02268       58.57676
O         67.11060       68.93025       59.52195
H         73.21075       69.80933       54.17535
H         72.63468       70.08135       56.94087
H         71.03029       68.58611       54.78050
H         71.00685       70.35953       55.06528
H         70.68099       71.01028       57.71795
H         69.18743       67.45839       55.76861
H         68.93573       70.80252       59.42973
H         67.43609       67.26705       57.48477
H         66.44935       68.22391       59.51618
N         72.94515       66.80913       56.08420
C         73.15925       65.48191       56.66712
C         74.32310       65.49509       57.65419
O         74.15580       65.03036       58.77301
C         73.31671       64.44594       55.52811
C         73.47275       63.00165       56.02960
C         73.29447       62.02347       54.90025
O         72.11504       61.95847       54.25022
O         74.19810       61.26695       54.58411
H         72.93745       66.90411       55.05666
H         72.24717       65.18813       57.23330
H         74.17143       64.70059       54.86199
H         72.38164       64.50676       54.92673
H         72.69556       62.77220       56.78847
H         74.47477       62.88124       56.49739
N         75.50123       66.08930       57.33328
C         76.62620       66.23004       58.26335
C         76.23736       67.01631       59.51448
O         76.53491       66.56076       60.60945
C         77.81395       66.89973       57.54188
C         78.35344       65.95915       56.44375
C         79.44738       66.55085       55.61206
O         79.99131       65.81283       54.62827
O         79.83336       67.69209       55.79041
H         75.57994       66.49839       56.38923
H         76.97748       65.22665       58.59310
H         78.63782       67.09589       58.26302
H         77.48945       67.87334       57.11371
H         77.54471       65.67252       55.74679
H         78.73543       65.03238       56.92202
N         75.54966       68.18668       59.42752
C         75.14592       68.99557       60.55931
H         74.03624       69.04234       60.60087
H         75.52353       68.59731       61.52259
H         75.53343       70.02820       60.42513
H         75.26011       68.51416       58.51080
Ca        82.06003       67.19883       52.85654
O         79.20360       66.70326       51.65587
H         78.45344       66.87250       51.03245
H         79.00180       65.81817       52.05144

Ca 1.0



