%chk=holoCaM-CaMKII.loop4.water1.frame460.chk
%nprocshared=20
%mem=10GB
%nosave
#b3lyp/svp scf=(tight,noincore,xqc) Test 
#IOP(5/87=12) Density=Current Pop=(MK,readradii) iop(6/33=2) iop(6/42=6)

holoCaM-CaMKII.loop4.water1.frame460 

   -3  1 
C         73.09337       65.32994       27.99650
C         72.28702       65.08150       26.75913
O         71.21454       64.50255       26.86472
H         74.03544       65.86872       27.76420
H         72.49847       65.94466       28.70475
H         73.34306       64.36026       28.47468
N         72.72849       65.50808       25.54202
C         71.94310       65.31906       24.33360
C         71.81903       63.84887       24.01098
O         72.82705       63.16122       23.91676
C         72.56291       66.03231       23.12754
C         71.56482       66.19380       22.00615
O         71.89905       66.80020       21.01445
O         70.26615       65.85799       22.14286
H         73.62437       66.01645       25.48398
H         70.95099       65.79335       24.51642
H         73.48254       65.50723       22.78554
H         72.84861       67.06468       23.42481
N         70.59631       63.31138       23.80222
C         70.37588       61.90916       23.50252
C         70.45750       61.70747       21.99139
O         71.16987       60.82020       21.54377
C         69.01999       61.44808       24.12476
C         68.94171       61.86511       25.62642
C         68.86702       59.92306       23.97129
C         67.62317       61.51311       26.31495
H         69.78093       63.93696       23.83283
H         71.16405       61.29422       23.99552
H         68.18703       61.95136       23.58547
H         69.03127       62.96792       25.70899
H         69.78200       61.41380       26.19702
H         67.88611       59.57676       24.35328
H         68.92210       59.62568       22.90447
H         69.67179       59.39731       24.53080
H         66.76803       61.95679       25.76404
H         67.48791       60.41671       26.39373
H         67.63043       61.92589       27.34680
N         69.77176       62.53236       21.14806
C         69.76140       62.40101       19.69042
C         71.15100       62.54927       19.07671
O         71.57328       61.66405       18.34577
C         68.85897       63.47442       19.02663
C         67.41323       63.43978       19.44941
O         67.05617       63.73081       20.71423
O         66.54392       63.21052       18.62440
H         69.22644       63.29153       21.57511
H         69.34603       61.40256       19.42397
H         68.90089       63.31543       17.92426
H         69.25073       64.48933       19.23972
N         71.87976       63.68412       19.28400
C         73.12773       64.00864       18.60068
C         73.04106       65.33507       17.84302
O         74.04303       65.74801       17.27757
H         71.51460       64.37645       19.95047
H         73.41506       63.21165       17.87855
H         73.93247       64.09158       19.35944
N         71.87360       66.03927       17.75963
C         71.70121       67.27817       16.99618
C         72.39497       68.52473       17.58038
O         72.34592       69.54663       16.90857
C         70.18719       67.54953       16.77425
C         69.39544       67.53264       18.04791
O         68.45559       66.76685       18.18944
O         69.75525       68.32149       19.05874
H         71.03592       65.62750       18.18380
H         72.13081       67.12193       15.98258
H         69.76933       66.76225       16.11053
H         70.04766       68.52775       16.26676
N         73.03865       68.55133       18.78716
C         73.74584       69.72493       19.30047
C         73.10833       70.41451       20.50695
O         73.69996       71.38241       20.96097
H         73.08480       67.69979       19.34601
H         73.82635       70.50987       18.51736
H         74.78457       69.42075       19.55236
N         71.89166       70.05919       21.02568
C         71.19019       70.87197       22.03438
C         70.54795       70.03836       23.13017
O         70.61940       68.82263       23.09465
C         70.17863       71.81318       21.31657
C         69.17061       71.15995       20.34455
C         67.90016       70.49902       20.92865
N         66.99059       71.53120       21.40677
O         68.15625       69.61686       21.98040
H         71.38494       69.28174       20.59230
H         71.91230       71.54019       22.55285
H         70.81574       72.46610       20.67941
H         69.65143       72.48524       22.02571
H         69.71718       70.48704       19.68193
H         68.80255       71.95515       19.66143
H         66.68356       72.11119       20.59379
H         66.13779       71.05922       21.76627
N         69.90315       70.66249       24.16274
C         69.20007       69.96640       25.23890
C         67.79984       70.57191       25.41382
O         67.69664       71.76907       25.63466
C         70.03675       70.07226       26.54799
C         69.30897       69.45611       27.75469
C         71.38790       69.35068       26.37854
H         69.93847       71.69094       24.20914
H         69.10340       68.88259       25.01744
H         70.22828       71.14356       26.77686
H         69.93576       69.54374       28.66783
H         68.36162       69.99327       27.95781
H         69.09254       68.38254       27.57917
H         71.98018       69.79630       25.55371
H         71.99095       69.43129       27.30771
H         71.22919       68.27124       26.15758
N         66.68852       69.77277       25.42222
C         65.34637       70.23570       25.79814
C         65.06522       69.80855       27.22546
O         65.91750       69.19951       27.84178
C         64.26465       69.61727       24.87464
C         64.21272       70.22450       23.50599
N         63.92020       71.53831       23.35097
O         64.37980       69.51713       22.52527
H         66.81990       68.75856       25.31502
H         65.27832       71.34418       25.79660
H         63.25019       69.78219       25.29181
H         64.41867       68.51691       24.81477
H         63.74204       72.13912       24.16950
H         63.85082       71.95562       22.41141
N         63.88346       70.11964       27.83092
C         63.55358       69.68976       29.18607
C         63.48733       68.17118       29.26656
O         64.06347       67.59893       30.18209
C         62.20513       70.29313       29.62843
C         61.94341       70.03516       31.09514
C         62.79530       70.58632       32.07052
C         60.85280       69.25174       31.50418
C         62.56258       70.35469       33.42776
C         60.62283       69.01940       32.86477
C         61.47792       69.57124       33.83089
O         61.26748       69.35777       35.14531
H         63.19539       70.68525       27.31270
H         64.33780       70.07451       29.87406
H         61.39331       69.87630       28.99205
H         62.21867       71.39472       29.47938
H         63.63937       71.20057       31.78260
H         60.18421       68.81659       30.77231
H         63.22667       70.78659       34.16637
H         59.78032       68.41080       33.16692
H         60.52800       68.82389       35.46838
N         62.82680       67.45585       28.30561
C         62.70755       65.99287       28.29577
C         64.04527       65.24905       28.28096
O         64.02996       64.03082       28.38985
C         61.85118       65.53940       27.08488
C         62.55710       65.77683       25.73324
C         61.65725       65.45695       24.57742
O         60.51965       66.15480       24.39723
O         61.96469       64.58632       23.77893
H         62.36998       67.99000       27.55072
H         62.17152       65.70646       29.22753
H         60.88832       66.09500       27.11452
H         61.61780       64.45489       27.17226
H         63.46285       65.13567       25.67828
H         62.87074       66.83479       25.63383
N         65.23163       65.90622       28.15268
C         66.53554       65.26633       28.15702
C         67.24727       65.64639       29.44508
O         67.62718       64.75716       30.19344
C         67.32637       65.67592       26.89414
C         66.52564       65.37225       25.61560
C         67.31789       65.62575       24.36883
O         67.46849       64.73359       23.55145
O         67.83510       66.84098       24.12324
H         65.23213       66.92018       28.04038
H         66.43237       64.15840       28.13909
H         68.28836       65.11937       26.88475
H         67.54859       66.76410       26.91138
H         65.62841       66.02536       25.58667
H         66.19443       64.31238       25.62269
N         67.39169       66.95442       29.80194
C         67.94525       67.40212       31.06233
H         68.79490       68.08885       30.86987
H         67.16124       67.96000       31.62080
H         68.29198       66.56142       31.69672
H         67.05228       67.68477       29.17301
Ca        68.84684       67.48738       21.45284
O         65.84490       67.05919       21.26532
H         65.93868       68.01700       21.03336
H         65.28659       66.68387       20.53937

Ca 1.0



