%chk=holoCaM-CaMKII.loop2.water1.frame53.chk
%nprocshared=20
%mem=10GB
%nosave
#b3lyp/svp scf=(tight,noincore,xqc) Test 
#IOP(5/87=12) Density=Current Pop=(MK,readradii) iop(6/33=2) iop(6/42=6)

holoCaM-CaMKII.loop2.water1.frame53 

   -2  1 
C         11.92954       71.37615      103.38655
C         10.87536       71.26713      104.45644
O          9.76763       71.73893      104.24992
H         12.88118       70.89481      103.70045
H         11.57930       70.86802      102.46265
H         12.13564       72.44217      103.15999
N         11.15111       70.62568      105.62460
C         10.17228       70.39864      106.68412
C          9.68912       71.68477      107.34350
O         10.50670       72.43622      107.85574
C         10.78436       69.47738      107.75561
C          9.82330       69.22400      108.87889
O         10.16149       69.56689      110.13554
O          8.72691       68.73732      108.65471
H         12.09662       70.22773      105.74058
H          9.31176       69.85519      106.25057
H         11.70826       69.93991      108.16716
H         11.05729       68.50583      107.28885
N          8.34940       71.94871      107.42949
C          7.78141       73.08653      108.13923
C          6.79487       72.63214      109.22674
O          5.65728       73.08140      109.21672
C          7.10009       74.00331      107.11226
H          7.69087       71.30851      106.97621
H          8.58258       73.67114      108.63848
H          6.67632       74.90110      107.61018
H          7.83761       74.33721      106.35248
H          6.28048       73.45989      106.59100
N          7.17245       71.75918      110.21305
C          6.30482       71.34646      111.33075
C          7.03287       70.41177      112.30913
O          7.07082       70.75148      113.48385
C          4.92158       70.79621      110.89604
C          4.95861       69.81406      109.78156
O          4.39596       70.07077      108.72800
O          5.57739       68.64162      109.91883
H          8.13331       71.38907      110.17975
H          6.04603       72.25307      111.92332
H          4.29029       71.64257      110.55258
H          4.39058       70.36002      111.76988
N          7.65982       69.25837      111.91874
C          8.41833       68.40348      112.83512
C          7.98622       66.94207      112.85753
O          8.60115       66.17940      113.58949
H          7.67210       69.01002      110.92449
H          8.35896       68.78296      113.87814
H          9.48519       68.43400      112.53138
N          6.93597       66.47425      112.12544
C          6.43109       65.10008      112.21160
C          7.33971       64.03183      111.56752
O          6.96357       62.86845      111.60700
C          4.97840       65.05595      111.66286
C          4.84850       65.30580      110.18798
N          3.62878       65.44361      109.61921
O          5.84559       65.39109      109.49817
H          6.40374       67.14705      111.56621
H          6.32400       64.84972      113.28994
H          4.39910       65.84264      112.19594
H          4.50713       64.07640      111.88828
H          2.77267       65.39945      110.18963
H          3.54002       65.61610      108.60710
N          8.54867       64.32628      110.99387
C          9.46157       63.31265      110.45919
C          9.06688       62.70717      109.11492
O          9.79950       61.85513      108.63322
H          8.89099       65.29538      111.00860
H          9.59642       62.50912      111.21695
H         10.45515       63.78447      110.30069
N          7.94673       63.09637      108.44809
C          7.49516       62.56449      107.16389
C          7.29853       63.69511      106.16168
O          6.67985       64.69345      106.50415
C          6.16092       61.80958      107.35742
C          6.35695       60.56021      108.21829
O          5.19506       62.63142      107.96413
H          7.35298       63.79860      108.88401
H          8.22121       61.83295      106.74256
H          5.79432       61.45214      106.36536
H          4.77135       63.16799      107.24521
H          5.39361       60.01760      108.31639
H          7.09570       59.87925      107.74251
H          6.71798       60.83022      109.23306
N          7.76182       63.58625      104.88155
C          7.55324       64.63643      103.88142
C          6.05459       64.78146      103.61782
O          5.41375       63.77929      103.32840
C          8.26568       64.36620      102.50643
C          9.73306       63.87720      102.63752
C          8.22872       65.67333      101.67672
C         10.39342       63.58560      101.28356
H          8.24945       62.71993      104.62330
H          7.99251       65.57605      104.28538
H          7.70667       63.56929      101.96606
H          9.75920       62.91490      103.18142
H         10.34424       64.61527      103.19841
H          7.20076       66.04096      101.55941
H          8.82221       66.46867      102.18099
H          8.61566       65.53882      100.64929
H          9.77884       62.86522      100.70054
H         10.53793       64.50904      100.68822
H         11.39665       63.14152      101.44681
N          5.44873       66.00183      103.61709
C          4.04122       66.19809      103.26261
C          3.96581       66.68337      101.83862
O          5.00193       66.87937      101.22802
C          3.37390       67.24564      104.17252
C          3.62365       66.98982      105.61349
O          2.70861       66.91913      106.41812
O          4.89874       66.96877      106.02106
H          6.03408       66.83392      103.76075
H          3.48799       65.23639      103.33911
H          2.28250       67.31183      103.97004
H          3.82665       68.24059      103.96448
N          2.78118       66.88085      101.21222
C          2.73178       67.31370       99.82510
C          3.30705       68.72710       99.65110
O          4.19669       68.86500       98.82565
C          1.32241       67.10277       99.24182
C          1.26657       67.29961       97.74508
C          0.34974       68.20520       97.18953
C          2.10317       66.55802       96.88495
C          0.26998       68.36663       95.80320
C          2.02784       66.73218       95.50170
C          1.10982       67.63348       94.96052
H          1.90494       66.66538      101.71455
H          3.37997       66.61397       99.25439
H          0.57662       67.73699       99.75466
H          1.03585       66.04546       99.43536
H         -0.31269       68.77605       97.82776
H          2.81477       65.84136       97.27330
H         -0.44691       69.05821       95.38208
H          2.67783       66.16210       94.84982
H          1.04661       67.75971       93.88798
N          2.91993       69.81039      100.40699
C          3.52726       71.14020      100.31058
C          5.04517       71.12022      100.35541
O          5.68955       71.75160       99.52921
C          3.01068       71.86188      101.56914
C          1.64492       71.25265      101.74007
C          1.92597       69.77936      101.46201
H          3.15740       71.64253       99.38948
H          3.59123       71.54819      102.46780
H          3.04511       72.97108      101.51376
H          1.15510       71.45192      102.71745
H          1.00126       71.65043      100.92371
H          2.36579       69.27529      102.34730
H          0.97266       69.30251      101.17628
N          5.66957       70.40067      101.32417
C          7.11249       70.34696      101.53302
C          7.80526       69.80116      100.29751
O          8.71422       70.44080       99.78804
C          7.42888       69.46950      102.76709
C          6.77473       70.02496      104.05512
C          6.96344       69.14535      105.25391
O          6.34438       69.47550      106.39986
O          7.63977       68.13008      105.20702
H          5.06206       69.84742      101.94453
H          7.49979       71.36871      101.74753
H          8.52957       69.41344      102.91795
H          7.05177       68.44538      102.57557
H          5.67980       70.11891      103.93418
H          7.17434       71.03656      104.27954
N          7.39523       68.63053       99.74195
C          7.99137       68.06546       98.55394
H          9.05380       67.81184       98.74735
H          7.44855       67.13697       98.27084
H          7.91800       68.78533       97.71175
H          6.60755       68.13299      100.16144
Ca         5.43562       67.47667      108.06849
O          8.96967       65.98495      108.21445
H          9.65412       66.23542      108.88461
H          9.37152       66.23295      107.34466

Ca 1.0



