%chk=holoCaM-CaMKII.loop2.water2.frame259.chk
%nprocshared=20
%mem=10GB
%nosave
#b3lyp/svp scf=(tight,noincore,xqc) Test 
#IOP(5/87=12) Density=Current Pop=(MK,readradii) iop(6/33=2) iop(6/42=6)

holoCaM-CaMKII.loop2.water2.frame259 

   -2  1 
C        105.04547      -10.22980       55.10986
C        105.17166      -10.73218       53.70351
O        104.25069      -11.36882       53.21853
H        104.07465      -10.54172       55.55267
H        105.87354      -10.62010       55.73481
H        105.08253       -9.11917       55.10039
N        106.29114      -10.45990       52.97794
C        106.43467      -10.78483       51.56468
C        107.57693      -11.75743       51.33410
O        108.70606      -11.45630       51.69583
C        106.67036       -9.47376       50.79459
C        106.85905       -9.71111       49.32815
O        107.88935       -9.35883       48.77674
O        105.89676      -10.32346       48.61881
H        107.06114       -9.94868       53.43751
H        105.50041      -11.24209       51.17018
H        107.56834       -8.95623       51.19954
H        105.79183       -8.80795       50.93492
N        107.34242      -12.93531       50.68275
C        108.37967      -13.90484       50.35032
C        108.51373      -14.13369       48.83930
O        109.38803      -14.90133       48.46119
C        108.04558      -15.22981       51.04878
H        106.37586      -13.15758       50.40356
H        109.36752      -13.55642       50.72151
H        107.97774      -15.07580       52.14710
H        107.06888      -15.62270       50.68895
H        108.82902      -15.99207       50.85197
N        107.67321      -13.55565       47.92343
C        107.70124      -13.86801       46.48579
C        107.70779      -12.64130       45.56613
O        107.79391      -12.83186       44.36069
C        106.50131      -14.78873       46.16610
C        105.16023      -14.18575       46.49723
O        104.17323      -14.90151       46.53919
O        105.04601      -12.87805       46.79980
H        106.91705      -12.95562       48.26984
H        108.61839      -14.44920       46.24590
H        106.62416      -15.69047       46.80631
H        106.51045      -15.12610       45.10731
N        107.61281      -11.36469       46.03886
C        107.63367      -10.17520       45.19139
C        106.44617       -9.99659       44.24459
O        106.46187       -9.02316       43.50462
H        107.57667      -11.21284       47.05055
H        108.57235      -10.18433       44.59686
H        107.65953       -9.27678       45.84650
N        105.39772      -10.86940       44.18575
C        104.29306      -10.76156       43.22590
C        103.33187       -9.57843       43.44358
O        102.38237       -9.47061       42.67917
C        103.50510      -12.09447       43.16571
C        102.75628      -12.48229       44.41591
N        102.00534      -13.60560       44.41427
O        102.81370      -11.79722       45.42445
H        105.42242      -11.69593       44.78664
H        104.73857      -10.64961       42.21226
H        104.21238      -12.91640       42.91747
H        102.76718      -12.02817       42.33730
H        101.94584      -14.19834       43.57391
H        101.47229      -13.87908       45.24839
N        103.51425       -8.63692       44.41418
C        102.65378       -7.46594       44.56578
C        101.34406       -7.70774       45.30418
O        100.61217       -6.74388       45.48185
H        104.35217       -8.68068       45.00238
H        102.46806       -7.00681       43.56944
H        103.20178       -6.71300       45.17174
N        100.98742       -8.92902       45.79286
C         99.77473       -9.18068       46.57861
C        100.13162       -9.76900       47.93858
O        101.30140      -10.02993       48.18553
C         98.85308      -10.16493       45.80685
C         98.26906       -9.51053       44.55532
O         99.55644      -11.32221       45.42746
H        101.60738       -9.72682       45.61657
H         99.21401       -8.23943       46.77060
H         97.97473      -10.45169       46.42771
H         99.72225      -11.85087       46.25053
H         99.07124       -9.19796       43.85517
H         97.60003      -10.22931       44.03519
H         97.66638       -8.62119       44.84056
N         99.15268      -10.06700       48.84858
C         99.41063      -10.83169       50.06530
C         98.79349      -12.19260       49.84601
O         97.57750      -12.29076       49.73424
C         98.83240      -10.17321       51.35607
C         99.35986       -8.73175       51.54747
C         99.16837      -11.05560       52.58291
C         98.78049       -8.03288       52.78434
H         98.17117       -9.84955       48.61578
H        100.50550      -10.95557       50.20895
H         97.72478      -10.11736       51.25765
H         99.07026       -8.12893       50.66028
H        100.46672       -8.73339       51.62540
H         98.77672      -12.08341       52.45671
H        100.26782      -11.11556       52.73385
H         98.69483      -10.67202       53.50734
H         99.11308       -8.52358       53.72205
H         99.13850       -6.98350       52.82292
H         97.67012       -8.03012       52.74690
N         99.58563      -13.28861       49.72017
C         99.04124      -14.61176       49.45635
C         98.32501      -15.14297       50.68764
O         98.38304      -14.52444       51.74093
C        100.16264      -15.59433       49.04951
C        100.87533      -15.18349       47.79020
O        101.56995      -14.03280       47.73912
O        100.84895      -15.91104       46.81022
H        100.60425      -13.16204       49.77143
H         98.32586      -14.53993       48.60621
H         99.71691      -16.58724       48.85577
H        100.90288      -15.69201       49.87177
N         97.61847      -16.30311       50.61874
C         97.00638      -16.93456       51.78183
C         98.06696      -17.45130       52.75742
O         97.97075      -17.08963       53.91958
C         95.97854      -17.99094       51.33928
C         95.20622      -18.62872       52.47782
C         94.98431      -20.01599       52.46462
C         94.66287      -17.86450       53.53388
C         94.23689      -20.62479       53.47722
C         93.93764      -18.48227       54.55587
C         93.71962      -19.86004       54.52495
H         97.50326      -16.74681       49.69434
H         96.41011      -16.15286       52.29804
H         96.45044      -18.76505       50.69752
H         95.23604      -17.45094       50.71167
H         95.36802      -20.62530       51.65616
H         94.79756      -16.79412       53.58878
H         94.05507      -21.69071       53.44666
H         93.53795      -17.88941       55.36909
H         93.14518      -20.33355       55.31026
N         99.14578      -18.22129       52.39329
C        100.23632      -18.57018       53.30555
C        101.08198      -17.37520       53.77791
O        102.02300      -17.61554       54.52132
C        101.05549      -19.59848       52.51018
C        100.84123      -19.15298       51.08247
C         99.35678      -18.81142       51.08631
H         99.85164      -19.07073       54.22052
H        102.11404      -19.72649       52.82447
H        100.54931      -20.58654       52.60127
H        101.41845      -18.21283       50.92858
H        101.13710      -19.88789       50.30275
H         99.16161      -18.15216       50.23616
H         98.72052      -19.72082       51.01025
N        100.79170      -16.07786       53.45477
C        101.51295      -14.91819       53.98483
C        100.63532      -14.04627       54.87788
O        101.16622      -13.11998       55.47657
C        102.03423      -14.06546       52.82066
C        103.04908      -14.83989       51.98187
C        103.47415      -14.09056       50.76237
O        104.26800      -14.61455       49.99800
O        102.98468      -12.87132       50.46470
H        100.01923      -15.88462       52.81638
H        102.36751      -15.24664       54.61653
H        102.51942      -13.14627       53.20748
H        101.16865      -13.75954       52.19111
H        102.60356      -15.79501       51.63655
H        103.94381      -15.06243       52.60299
N         99.29946      -14.26273       55.02774
C         98.47451      -13.45964       55.90127
H         97.41954      -13.80483       55.84211
H         98.82289      -13.56809       56.95002
H         98.51787      -12.39313       55.59714
H         98.83406      -15.00812       54.50805
Ca       103.76544      -12.19930       48.49360
O        102.81448       -9.71397       50.57474
H        103.25606      -10.12925       51.35229
H        102.81476       -8.74609       50.77942
O        103.84104       -8.77992       47.51138
H        103.82429       -8.65512       48.49090
H        104.69182       -8.35859       47.23273

Ca 1.0



