%chk=holoCaM.loop2.water0.frame364.chk
%nprocshared=20
%mem=10GB
%nosave
#b3lyp/svp scf=(tight,noincore,xqc) Test 
#IOP(5/87=12) Density=Current Pop=(MK,readradii) iop(6/33=2) iop(6/42=6)

holoCaM.loop2.water0.frame364 

   -2  1 
C         99.27034       10.38017       92.34055
C         99.15812        8.95677       92.80460
O         99.72884        8.09080       92.15629
H        100.34167       10.67525       92.31500
H         98.84803       10.47714       91.31853
H         98.73190       11.07352       93.01904
N         98.44998        8.63977       93.93079
C         98.36185        7.28527       94.46540
C         96.91544        6.80919       94.49635
O         96.06064        7.49868       95.03267
C         99.03508        7.23294       95.85374
C         99.28365        5.81182       96.28194
O         98.96505        5.40193       97.38476
O         99.87946        5.00649       95.38957
H         97.98203        9.39570       94.45331
H         98.94448        6.60416       93.80844
H         98.47570        7.81437       96.61722
H        100.04351        7.68876       95.74060
N         96.58663        5.61905       93.91896
C         95.25030        5.08221       93.75403
C         95.01682        3.77674       94.51317
O         93.88038        3.32455       94.49079
C         95.04108        4.82080       92.25266
H         97.32809        5.06226       93.52638
H         94.50461        5.82116       94.11340
H         95.19984        5.75260       91.66988
H         95.77817        4.06479       91.89165
H         94.02192        4.43575       92.04575
N         96.00582        3.09255       95.17159
C         95.75636        1.82459       95.87113
C         96.15667        1.85067       97.34733
O         95.88191        0.87556       98.03382
C         96.44931        0.66669       95.12454
C         97.93403        0.85259       95.01452
O         98.68041        0.94907       96.12473
O         98.46916        0.91606       93.91965
H         96.97307        3.44593       95.13946
H         94.66945        1.59297       95.86326
H         96.01664        0.59363       94.10290
H         96.24372       -0.29361       95.64664
N         96.79722        2.91198       97.91251
C         97.14613        2.98451       99.32198
C         98.09598        1.89503       99.77324
O         97.77462        1.20412      100.73004
H         97.03269        3.73028       97.33824
H         96.21741        2.95417       99.93408
H         97.64121        3.96080       99.51405
N         99.30055        1.71043       99.15881
C        100.31861        0.77761       99.64835
C        101.63461        1.49356       99.97095
O        102.58564        0.82102      100.34580
C        100.52169       -0.40803       98.67272
C        101.09215       -0.09200       97.31304
N        101.34619       -1.09822       96.44552
O        101.32502        1.05736       96.98131
H         99.51329        2.27931       98.32591
H         99.97886        0.30501      100.59673
H         99.54568       -0.92243       98.53220
H        101.21278       -1.13142       99.15864
H        101.15572       -2.07719       96.70551
H        101.74060       -0.90035       95.51452
N        101.75615        2.85494       99.89616
C        102.96937        3.57946      100.24885
C        104.09855        3.48010       99.23412
O        105.12689        4.09425       99.47910
H        100.93706        3.43049       99.65842
H        103.31612        3.24893      101.25315
H        102.71832        4.65948      100.32477
N        103.99872        2.74858       98.08585
C        105.06855        2.62945       97.09657
C        104.57111        2.98549       95.70211
O        103.64886        2.34346       95.22019
C        105.61672        1.18189       97.07879
C        106.32058        0.82741       98.38788
O        104.58243        0.25387       96.85658
H        103.14111        2.22077       97.91088
H        105.92071        3.29841       97.34914
H        106.39316        1.10261       96.27921
H        104.57604        0.03880       95.88767
H        107.16345        1.52823       98.56993
H        105.61526        0.87539       99.24370
H        106.73066       -0.20264       98.32108
N        105.18290        3.95803       94.96301
C        104.84377        4.20854       93.56062
C        105.14588        2.95433       92.74396
O        106.27693        2.48824       92.74276
C        105.62025        5.43923       92.99087
C        105.25539        6.76841       93.71372
C        105.41649        5.59453       91.46695
C        103.79189        7.21471       93.57023
H        105.94675        4.49814       95.39666
H        103.75999        4.43499       93.48142
H        106.70830        5.26464       93.14836
H        105.89717        7.57819       93.30186
H        105.48810        6.68755       94.79559
H        104.34569        5.71626       91.20812
H        105.98440        6.47145       91.08958
H        105.79765        4.70568       90.92239
H        103.65205        8.18405       94.09303
H        103.51579        7.36845       92.50695
H        103.09559        6.48443       94.02882
N        104.15471        2.37781       92.00981
C        104.29452        1.18734       91.17929
C        104.06459        1.54309       89.70658
O        103.97202        2.72259       89.39175
C        103.39986        0.05693       91.74315
C        101.94996        0.40440       91.89694
O        101.27507        0.70865       90.93023
O        101.38087        0.35964       93.11728
H        103.23420        2.82518       92.02093
H        105.33293        0.79244       91.22824
H        103.78761       -0.20056       92.75383
H        103.48777       -0.85523       91.12053
N        104.06795        0.58041       88.73601
C        104.18461        0.87556       87.30701
C        103.13914        1.83970       86.74036
O        103.57918        2.81471       86.15114
C        104.26996       -0.41015       86.45211
C        104.62829       -0.06758       85.02599
C        105.90699        0.43432       84.72785
C        103.69135       -0.22242       83.99011
C        106.24417        0.77344       83.41630
C        104.03036        0.12835       82.67906
C        105.30599        0.62369       82.39251
H        104.11574       -0.40777       89.02360
H        105.17112        1.37963       87.19244
H        103.31830       -0.96241       86.48089
H        105.04250       -1.10057       86.85322
H        106.64390        0.55844       85.51178
H        102.69595       -0.59533       84.19839
H        107.23255        1.15532       83.19614
H        103.30327        0.01972       81.88501
H        105.56795        0.89333       81.37795
N        101.77865        1.67006       86.80404
C        100.83288        2.64458       86.26108
C        101.07543        4.03811       86.81494
O        101.08658        5.01136       86.07464
C         99.46386        2.14269       86.75904
C         99.68251        0.65365       86.83941
C        101.07816        0.57968       87.45040
H        100.87509        2.62176       85.14953
H         99.28156        2.46883       87.80856
H         98.59860        2.47615       86.14640
H         98.90234        0.09229       87.39713
H         99.73486        0.26341       85.79770
H        101.05807        0.77657       88.53772
H        101.47257       -0.42639       87.25195
N        101.25794        4.17148       88.15465
C        101.35688        5.43192       88.88180
C        102.64090        6.19691       88.58372
O        102.75243        7.33348       89.02137
C        101.28613        5.12434       90.39513
C         99.99562        4.35530       90.75263
C        100.03803        3.83598       92.14645
O        100.99496        3.01933       92.60503
O         99.13078        4.09472       92.89264
H        101.28656        3.29519       88.69212
H        100.48325        6.06319       88.60207
H        101.34713        6.05681       90.99986
H        102.16433        4.49248       90.64766
H         99.82888        3.46266       90.12939
H         99.11460        5.02136       90.60240
N        103.66442        5.63124       87.88416
C        104.91203        6.29819       87.58035
H        105.74813        5.73270       88.04384
H        105.05876        6.30916       86.47956
H        104.93802        7.34215       87.95305
H        103.58264        4.66516       87.56510
Ca       100.93845        3.10977       94.85379

Ca 1.0



