%chk=holoCaM.loop3.water2.frame252.chk
%nprocshared=20
%mem=10GB
%nosave
#b3lyp/svp scf=(tight,noincore,xqc) Test 
#IOP(5/87=12) Density=Current Pop=(MK,readradii) iop(6/33=2) iop(6/42=6)

holoCaM.loop3.water2.frame252 

   0  1 
C         37.78303       87.30061       70.93838
C         37.37860       88.74176       70.95057
O         36.25725       89.03647       70.56046
H         38.81075       87.16455       71.33397
H         37.08022       86.72250       71.57599
H         37.73838       86.91193       69.90062
N         38.22592       89.70150       71.42018
C         37.81389       91.09159       71.53115
C         37.59111       91.69237       70.15428
O         38.53665       91.85346       69.39511
C         38.84039       91.89706       72.33753
C         38.31689       93.21717       72.81860
O         37.06379       93.64415       72.54424
O         38.99264       93.84075       73.61658
H         39.15329       89.41867       71.77380
H         36.87096       91.08786       72.12651
H         39.79131       92.02332       71.77603
H         39.06316       91.31893       73.26274
N         36.32891       91.99416       69.76030
C         35.97386       92.51681       68.44777
C         36.50918       93.92285       68.24215
O         37.17170       94.16011       67.24187
C         34.43808       92.50553       68.31182
C         33.93294       92.92487       66.92833
C         32.39824       92.86129       66.90682
C         31.78661       93.22981       65.54832
N         32.06994       94.61411       65.16604
H         35.57017       91.77591       70.41956
H         36.37433       91.83354       67.66447
H         33.99303       93.18331       69.06597
H         34.08175       91.46987       68.51229
H         34.34847       92.24034       66.15665
H         34.27262       93.95980       66.71774
H         31.98598       93.53851       67.68729
H         32.08254       91.82258       67.15020
H         30.68444       93.09942       65.62833
H         32.15893       92.53590       64.76293
H         33.08926       94.74561       64.98037
H         31.54895       94.83446       64.28710
H         31.75464       95.26909       65.91821
N         36.24399       94.90846       69.14876
C         36.62206       96.30756       68.95135
C         37.88275       96.69944       69.70828
O         38.31488       97.83520       69.56540
C         35.42323       97.23211       69.26464
C         34.96625       97.23305       70.70479
O         35.58843       96.49656       71.64603
O         34.01567       97.92730       71.02653
H         35.75222       94.64757       70.01488
H         36.87309       96.46957       67.87981
H         34.56803       96.92300       68.62453
H         35.69158       98.27623       68.99355
N         38.57046       95.80285       70.46837
C         39.86186       96.09288       71.06268
C         39.82534       97.19108       72.09579
O         40.54302       98.16805       71.93455
H         38.21589       94.84364       70.57091
H         40.57762       96.35766       70.25341
H         40.24685       95.17540       71.55700
N         39.06640       97.06501       73.22026
C         39.13056       98.00395       74.33643
C         39.68974       97.32332       75.58958
O         39.66270       97.93472       76.64865
C         37.76318       98.68792       74.56928
C         36.68228       97.80120       75.13256
N         36.10721       98.09812       76.32234
O         36.30339       96.82667       74.50609
H         38.46219       96.23750       73.31517
H         39.82501       98.83924       74.10015
H         37.41070       99.12783       73.61076
H         37.92618       99.53327       75.27305
H         36.40205       98.92464       76.86339
H         35.36349       97.50197       76.71166
N         40.26162       96.07836       75.53494
C         40.87325       95.41758       76.67890
C         39.92381       94.49358       77.41826
O         40.34006       93.92449       78.41663
H         40.36755       95.60520       74.62910
H         41.28468       96.17535       77.38007
H         41.73579       94.81290       76.32332
N         38.63653       94.30776       77.01132
C         37.64795       93.52256       77.74519
C         37.09849       92.36302       76.89430
O         37.21859       92.49246       75.51608
C         36.57155       94.50547       78.25538
C         37.16532       95.28409       79.40472
C         37.54632       96.62610       79.27056
C         37.37630       94.63000       80.63219
C         38.14036       97.29920       80.34433
C         37.95875       95.30392       81.70463
C         38.34854       96.64169       81.56317
O         38.92656       97.30006       82.58755
H         38.30043       94.79702       76.16866
H         38.08586       93.00855       78.62756
H         35.66436       93.99693       78.64514
H         36.25118       95.15892       77.41423
H         37.41117       97.14165       78.33366
H         37.08781       93.59273       80.75644
H         38.44707       98.33038       80.22639
H         38.11194       94.78153       82.64074
H         39.09245       96.87463       83.44137
N         35.81146       91.83807       77.36294
C         35.05131       90.90811       76.50223
C         33.63488       90.90817       77.05727
O         33.47133       90.68597       78.25069
C         35.61028       89.44089       76.47347
C         37.07919       89.36999       75.97675
C         34.70476       88.57015       75.56606
C         37.67377       87.95851       75.98233
H         35.94259       91.43172       78.31877
H         35.03096       91.28834       75.45732
H         35.57449       89.02868       77.50595
H         37.72212       89.95764       76.65786
H         37.15793       89.78942       74.94915
H         35.00904       87.50609       75.57683
H         33.65438       88.57639       75.91694
H         34.72774       88.94171       74.51790
H         37.16394       87.29065       75.26000
H         38.74143       88.00897       75.68177
H         37.61281       87.52116       77.00159
N         32.55921       91.11188       76.24843
C         31.18685       91.13656       76.73470
C         30.46470       89.87090       76.33065
O         31.04068       89.04295       75.64115
C         30.47053       92.39414       76.20593
O         30.38116       92.36843       74.80362
H         32.71057       91.18890       75.23680
H         31.17082       91.17012       77.84555
H         31.00677       93.30734       76.55635
H         29.44130       92.46183       76.61458
H         31.04372       93.01734       74.45033
N         29.19805       89.63321       76.75911
C         28.44721       88.43618       76.39934
C         28.23575       88.37407       74.89889
O         28.52334       87.35138       74.29548
C         27.09538       88.42534       77.11716
H         28.75147       90.33431       77.37250
H         28.99931       87.53020       76.73968
H         27.25803       88.44314       78.21664
H         26.48292       89.30623       76.83124
H         26.53921       87.49725       76.86469
N         27.77026       89.46914       74.23319
C         27.54366       89.51723       72.79181
C         28.77249       89.09233       72.01149
O         28.65547       88.21469       71.16660
C         27.13746       90.93747       72.37784
H         27.59138       90.32339       74.78337
H         26.70370       88.83527       72.53196
H         26.21386       91.24075       72.91537
H         27.94305       91.66424       72.62082
H         26.93655       90.97752       71.28609
N         29.98911       89.65311       72.25917
C         31.20742       89.27722       71.54168
C         31.44049       87.77800       71.66626
O         31.48935       87.10352       70.64670
C         32.41992       90.10435       72.04486
C         32.22919       91.60659       71.73025
C         33.34581       92.47329       72.24422
O         33.63401       92.51157       73.55259
O         33.95307       93.20916       71.48869
H         30.04419       90.35673       73.01001
H         31.07824       89.50815       70.45993
H         33.34512       89.75441       71.53560
H         32.54527       89.94869       73.13858
H         31.29736       91.98080       72.19411
H         32.13786       91.73593       70.62891
N         31.52453       87.17661       72.88245
C         31.63047       85.74080       73.03136
H         30.74911       85.24844       72.56454
H         32.55988       85.37019       72.55227
H         31.64539       85.47149       74.10937
H         31.47095       87.74797       73.73047
Ca        35.96126       94.03452       74.45928
O         33.68006       95.08594       76.24102
H         33.32512       94.81703       77.12491
H         33.50916       96.05973       76.19061
O         32.39008       95.71465       73.51264
H         31.75712       96.21016       74.09088
H         32.91578       96.42096       73.06074

Ca 1.0



