%chk=holoCaM.loop3.water2.frame234.chk
%nprocshared=20
%mem=10GB
%nosave
#b3lyp/svp scf=(tight,noincore,xqc) Test 
#IOP(5/87=12) Density=Current Pop=(MK,readradii) iop(6/33=2) iop(6/42=6)

holoCaM.loop3.water2.frame234 

   0  1 
C         51.50697       73.10996       39.42363
C         50.63943       74.30818       39.16676
O         50.19764       74.50463       38.04973
H         52.49244       73.44674       39.81223
H         51.02780       72.45614       40.18360
H         51.67004       72.52665       38.49410
N         50.34086       75.13940       40.19525
C         49.53534       76.36074       40.11497
C         50.35231       77.49111       39.45371
O         50.85532       78.34491       40.16765
C         49.14451       76.68731       41.58305
C         48.19817       77.80343       41.91044
O         47.19695       78.20859       41.11449
O         48.19437       78.20838       43.06052
H         50.69843       74.85172       41.12178
H         48.58356       76.16894       39.57118
H         50.07607       76.87123       42.16047
H         48.67157       75.78415       42.02980
N         50.56850       77.53999       38.10080
C         51.37695       78.57538       37.43659
C         50.82390       79.99754       37.54011
O         51.59109       80.90967       37.25994
C         51.57729       78.28374       35.92335
C         52.66718       77.25301       35.60777
C         52.36115       75.81965       36.04525
C         53.51150       74.85725       35.70594
N         54.71424       75.13751       36.49666
H         50.17403       76.79401       37.52150
H         52.37320       78.59619       37.93239
H         51.95891       79.20795       35.43409
H         50.60745       78.04191       35.43396
H         53.59965       77.61928       36.08134
H         52.81917       77.24723       34.50554
H         51.44321       75.48272       35.51406
H         52.19199       75.77211       37.13650
H         53.74767       74.90862       34.61940
H         53.17448       73.82280       35.93457
H         55.11467       76.07329       36.26555
H         54.48940       75.09144       37.51756
H         55.44021       74.41792       36.28087
N         49.54525       80.28399       37.91119
C         49.06056       81.66054       38.08486
C         48.80371       81.96478       39.55390
O         48.43792       83.09152       39.86130
C         47.83234       82.01014       37.19442
C         46.59459       81.17741       37.38021
O         45.53377       81.54814       36.90573
O         46.65278       79.99656       38.00093
H         48.92342       79.49888       38.13303
H         49.84695       82.38690       37.78208
H         48.10316       81.96848       36.11813
H         47.56119       83.06672       37.41643
N         49.04010       81.03954       40.52910
C         48.91254       81.32285       41.94224
C         47.48278       81.51342       42.39096
O         47.30279       81.87190       43.54621
H         49.38485       80.11272       40.28308
H         49.51423       82.22996       42.17208
H         49.34643       80.48676       42.53019
N         46.41207       81.31756       41.55994
C         45.05461       81.65115       41.97977
C         44.51214       80.74858       43.09088
O         43.48232       81.08512       43.65732
C         44.08000       81.67422       40.77960
C         43.58637       80.30512       40.37317
N         42.26532       80.01221       40.44302
O         44.37481       79.45538       39.99536
H         46.56782       81.01301       40.58911
H         45.11535       82.69891       42.35072
H         44.55754       82.18421       39.91333
H         43.20143       82.28489       41.07333
H         41.58377       80.71809       40.75941
H         41.91674       79.07785       40.18627
N         45.11858       79.56748       43.41322
C         44.65264       78.65624       44.44721
C         44.29105       77.27133       43.92453
O         43.98136       76.42639       44.75243
H         45.96149       79.28771       42.90669
H         43.76607       79.06351       44.97977
H         45.47038       78.54569       45.19081
N         44.24618       76.96671       42.58997
C         43.82898       75.65873       42.07556
C         44.80216       75.10047       41.03657
O         45.73678       75.77654       40.63696
C         42.44524       75.78664       41.39334
C         41.28520       75.93460       42.35130
C         41.06901       77.10593       43.09846
C         40.37409       74.86924       42.47591
C         39.95698       77.20372       43.94691
C         39.27288       74.96729       43.32344
C         39.05576       76.13718       44.05948
O         37.98348       76.24659       44.86951
H         44.44644       77.70349       41.90093
H         43.75855       74.90706       42.89308
H         42.25647       74.86111       40.81331
H         42.44522       76.61254       40.65096
H         41.74212       77.94874       43.01510
H         40.51467       73.95340       41.91487
H         39.78900       78.11196       44.51182
H         38.58730       74.13264       43.40036
H         37.33308       75.53404       44.95646
N         44.57963       73.85094       40.52241
C         45.29310       73.27129       39.38716
C         44.25762       72.95080       38.31611
O         43.29594       72.25526       38.61711
C         46.05759       71.97157       39.78436
C         47.03680       72.24111       40.95252
C         46.80948       71.41114       38.55245
C         47.74290       70.97601       41.45219
H         43.81983       73.28362       40.93023
H         46.04512       73.98723       38.98783
H         45.32027       71.21060       40.12597
H         46.45952       72.64417       41.81126
H         47.79787       72.99643       40.65696
H         46.10126       71.16396       37.73855
H         47.54453       72.15269       38.16947
H         47.33994       70.46674       38.78007
H         46.99499       70.20417       41.73510
H         48.42825       70.55851       40.68734
H         48.35446       71.22011       42.34505
N         44.42689       73.36222       37.02874
C         43.51016       73.00022       35.95370
C         44.10415       71.87706       35.13541
O         45.24363       71.50235       35.35802
C         43.20709       74.21992       35.05417
O         44.35661       74.66315       34.38458
H         45.29704       73.84375       36.78369
H         42.55196       72.62983       36.37737
H         42.75445       75.05260       35.63430
H         42.46214       73.94440       34.27861
H         44.84187       75.26586       35.00220
N         43.37009       71.28075       34.16118
C         43.91527       70.26595       33.26865
C         45.03070       70.86694       32.43130
O         46.08652       70.26244       32.31307
C         42.80957       69.72642       32.35906
H         42.39136       71.58240       34.03424
H         44.29798       69.39994       33.85599
H         42.36314       70.53897       31.74840
H         43.21845       68.94340       31.68563
H         42.01186       69.26552       32.98177
N         44.86639       72.09973       31.87048
C         45.87593       72.79300       31.07415
C         47.21121       72.87872       31.79586
O         48.21283       72.46464       31.22954
C         45.37118       74.19979       30.72347
H         43.97360       72.58705       32.04747
H         46.02875       72.24069       30.12130
H         45.17790       74.79281       31.64391
H         46.11516       74.73745       30.09960
H         44.42138       74.12578       30.15075
N         47.29198       73.36671       33.06391
C         48.53164       73.41522       33.84103
C         49.14688       72.02669       33.91120
O         50.29629       71.87481       33.51965
C         48.25694       74.03293       35.23551
C         47.91913       75.53408       35.06881
C         47.48416       76.23261       36.32203
O         46.51676       75.84403       36.95034
O         48.08018       77.37892       36.68396
H         46.41678       73.66971       33.50954
H         49.27246       74.07453       33.33452
H         49.15579       73.93997       35.87689
H         47.42447       73.48122       35.72521
H         47.09552       75.65796       34.34229
H         48.81257       76.05820       34.66204
N         48.41763       70.94993       34.30558
C         48.93673       69.60086       34.23198
H         49.82126       69.48960       34.89155
H         48.15447       68.87496       34.54073
H         49.22486       69.36846       33.18241
H         47.44727       71.08073       34.60795
Ca        46.59122       78.01830       39.00025
O         43.19488       76.89097       38.03003
H         42.45020       77.52151       38.19816
H         42.74941       76.02656       37.84637
O         44.81704       78.39565       35.98040
H         45.30250       79.23041       35.76815
H         43.86725       78.61444       35.80837

Ca 1.0



