%chk=holoCaM.loop3.water2.frame185.chk
%nprocshared=20
%mem=10GB
%nosave
#b3lyp/svp scf=(tight,noincore,xqc) Test 
#IOP(5/87=12) Density=Current Pop=(MK,readradii) iop(6/33=2) iop(6/42=6)

holoCaM.loop3.water2.frame185 

   0  1 
C         31.50486       57.20541       72.42345
C         31.88027       57.93962       71.17372
O         32.37433       57.31871       70.24639
H         30.41727       57.32092       72.61177
H         31.74396       56.12452       72.33260
H         32.07301       57.62703       73.27910
N         31.65097       59.27888       71.08490
C         31.99969       60.10108       69.92940
C         33.51581       60.17997       69.79121
O         34.14071       61.03152       70.40875
C         31.32968       61.48320       70.09951
C         31.60888       62.44505       68.99457
O         31.36196       62.16074       67.83564
O         32.07846       63.66350       69.29996
H         31.18441       59.72983       71.88794
H         31.56840       59.64480       69.01029
H         31.64532       61.94594       71.06038
H         30.23131       61.33631       70.13908
N         34.17623       59.23007       69.06996
C         35.62936       59.12494       69.00328
C         36.19813       60.25880       68.17218
O         36.99712       61.03292       68.68002
C         36.00408       57.73574       68.43586
C         37.50552       57.41921       68.48580
C         37.74593       55.97952       68.00377
C         39.22578       55.58582       68.07394
N         39.41588       54.20836       67.61623
H         33.61640       58.50476       68.59829
H         36.03383       59.15963       70.04089
H         35.63000       57.62654       67.39497
H         35.48649       56.97562       69.06394
H         37.86447       57.51524       69.53440
H         38.06801       58.13279       67.84582
H         37.39021       55.87999       66.95485
H         37.16449       55.27866       68.64355
H         39.58474       55.67454       69.12364
H         39.82513       56.27188       67.43593
H         40.43028       53.96226       67.67369
H         38.87434       53.54871       68.22154
H         39.10005       54.11166       66.62364
N         35.80881       60.41515       66.87402
C         36.29715       61.48382       65.99843
C         35.94972       62.89282       66.48018
O         36.49438       63.83456       65.92013
C         35.81454       61.26960       64.54402
C         34.33438       61.01066       64.45718
O         33.44164       61.87902       64.95856
O         33.93647       59.95572       63.98979
H         35.15065       59.71957       66.49408
H         37.40858       61.42918       65.98621
H         36.33547       60.37605       64.13429
H         36.09653       62.13832       63.91105
N         35.10505       63.12922       67.52199
C         34.91856       64.44928       68.09906
C         34.31313       65.46776       67.15831
O         34.92312       66.51443       66.98946
H         34.61850       62.34618       67.97878
H         35.89874       64.81964       68.47229
H         34.27198       64.36849       68.98815
N         33.10573       65.26384       66.54774
C         32.44172       66.30507       65.75219
C         31.07189       66.68693       66.31299
O         30.49154       67.64207       65.81620
C         32.35621       65.90766       64.26309
C         31.33959       64.83356       63.96853
N         30.34655       65.04476       63.07241
O         31.41480       63.76036       64.53525
H         32.64824       64.34908       66.66875
H         33.05886       67.22849       65.78473
H         33.36106       65.57030       63.92891
H         32.09485       66.81123       63.67079
H         30.26384       65.94122       62.57141
H         29.65715       64.30457       62.87222
N         30.48852       65.98781       67.33183
C         29.21209       66.32597       67.93142
C         28.16361       65.25618       67.71491
O         27.09311       65.40461       68.28872
H         30.95406       65.16708       67.72780
H         28.80436       67.28047       67.53262
H         29.37571       66.46065       69.02208
N         28.34176       64.20802       66.84756
C         27.26352       63.27300       66.52481
C         27.72897       61.82830       66.60821
O         28.92646       61.59253       66.66396
C         26.72089       63.55861       65.10232
C         26.35891       65.01848       64.90639
C         27.37026       65.98724       64.75168
C         25.01769       65.43075       64.87626
C         27.05149       67.33559       64.59394
C         24.69875       66.78594       64.72331
C         25.71658       67.74255       64.58570
O         25.42588       69.05149       64.44611
H         29.22048       64.13105       66.31444
H         26.42569       63.40968       67.24292
H         25.82639       62.91567       64.95108
H         27.46407       63.28090       64.32212
H         28.41188       65.70403       64.75338
H         24.21988       64.70835       64.98985
H         27.84565       68.06404       64.48284
H         23.66096       67.09219       64.71702
H         24.51607       69.38022       64.44639
N         26.82824       60.79901       66.62966
C         27.22639       59.38971       66.61572
C         26.29807       58.62300       65.67955
O         25.11621       58.51203       65.97841
C         27.21784       58.77097       68.05086
C         28.15164       59.57064       68.99789
C         27.65071       57.28952       67.99735
C         28.17131       59.05543       70.43974
H         25.82237       61.02626       66.66815
H         28.26611       59.31016       66.23288
H         26.18249       58.82161       68.45455
H         27.80479       60.62373       69.04381
H         29.18891       59.55991       68.59937
H         26.98527       56.70398       67.33625
H         28.69409       57.20256       67.62803
H         27.58147       56.80787       68.99215
H         27.14508       59.05097       70.86148
H         28.60957       58.03932       70.50428
H         28.80101       59.71969       71.06474
N         26.76270       58.07582       64.52013
C         25.91098       57.31638       63.60138
C         25.56473       55.94436       64.17150
O         26.01504       55.61473       65.25467
C         26.61918       57.15956       62.24152
O         27.80398       56.42914       62.38493
H         27.74911       58.23722       64.26694
H         24.97888       57.89307       63.41093
H         26.85126       58.17183       61.84238
H         25.94725       56.64338       61.52107
H         28.17945       56.32713       61.47221
N         24.78308       55.07397       63.47168
C         24.52337       53.70238       63.90631
C         25.81323       52.89630       63.94278
O         26.10382       52.27873       64.95734
C         23.53622       53.02095       62.95044
H         24.37505       55.39101       62.57943
H         24.04686       53.70737       64.91280
H         23.93987       52.98155       61.91638
H         23.32846       51.98372       63.29274
H         22.57667       53.58015       62.93786
N         26.63823       52.87365       62.85585
C         27.87934       52.10454       62.77603
C         28.82139       52.42734       63.91910
O         29.25046       51.51101       64.60649
C         28.57907       52.38028       61.43872
H         26.36718       53.44442       62.03974
H         27.63768       51.01865       62.81106
H         27.91085       52.10146       60.59623
H         28.83853       53.45695       61.34284
H         29.51017       51.77938       61.35958
N         29.15700       53.71617       64.20005
C         30.02384       54.09957       65.31223
C         29.48668       53.54018       66.61690
O         30.22502       52.87522       67.33033
C         30.13660       55.63487       65.42212
C         30.83248       56.27319       64.20768
C         30.97708       57.76157       64.35955
O         30.54729       58.39137       65.47024
O         31.49625       58.40953       63.46570
H         28.73572       54.45259       63.61908
H         31.04779       53.69323       65.15059
H         30.74040       55.87659       66.32566
H         29.12254       56.07641       65.54311
H         30.25367       56.07721       63.28371
H         31.84591       55.83371       64.08805
N         28.19033       53.73849       66.96926
C         27.61773       53.20174       68.18182
H         26.53322       53.44112       68.22135
H         27.73497       52.09709       68.20109
H         28.11735       53.64997       69.06520
H         27.57951       54.26169       66.33587
Ca        31.31539       61.11733       65.07071
O         28.69700       60.74817       63.45685
H         27.71037       60.72314       63.37912
H         29.00647       59.94501       62.96738
O         31.54706       61.72799       62.16468
H         30.85543       61.60837       61.46678
H         32.36933       61.96501       61.66720

Ca 1.0



