%chk=holoCaM.loop1.water2.frame106.chk
%nprocshared=20
%mem=10GB
%nosave
#b3lyp/svp scf=(tight,noincore,xqc) Test 
#IOP(5/87=12) Density=Current Pop=(MK,readradii) iop(6/33=2) iop(6/42=6)

holoCaM.loop1.water2.frame106 

   0  1 
C         66.10216       16.64499       10.84485
C         64.70498       17.17313       10.72709
O         63.80980       16.66147       11.37952
H         66.77820       17.44921       11.20222
H         66.14353       15.79142       11.55394
H         66.44678       16.29561        9.84799
N         64.44513       18.21510        9.89635
C         63.10444       18.74608        9.67964
C         62.24861       17.67466        9.01782
O         62.66784       17.15196        7.99368
C         63.20728       20.00575        8.80310
C         61.91331       20.74198        8.65345
O         61.89686       21.77039        8.00802
O         60.78331       20.31433        9.24219
H         65.24072       18.63873        9.39186
H         62.67372       19.05547       10.65786
H         63.60084       19.73956        7.79761
H         63.92136       20.71108        9.28365
N         61.05172       17.28315        9.55106
C         60.30445       16.13278        9.04616
C         59.08601       16.49086        8.19187
O         58.55651       15.56939        7.58541
C         59.89822       15.19969       10.21564
C         61.05396       14.73134       11.12532
C         62.13715       13.94960       10.36733
C         63.20481       13.38661       11.31854
N         64.25004       12.68970       10.56868
H         60.69574       17.77469       10.37853
H         60.95671       15.55803        8.35513
H         59.39160       14.29942        9.80497
H         59.16526       15.73510       10.85934
H         60.61760       14.07439       11.91007
H         61.50801       15.60438       11.63947
H         62.63038       14.62257        9.63504
H         61.66665       13.10309        9.82224
H         62.72975       12.67938       12.03419
H         63.66897       14.20596       11.90701
H         64.95635       12.30514       11.23680
H         63.83618       11.90075       10.02082
H         64.72895       13.35612        9.91956
N         58.58426       17.75959        8.06288
C         57.48166       18.08778        7.13864
C         57.84183       19.21463        6.15805
O         57.00348       19.56049        5.33737
C         56.18303       18.38781        7.91917
C         56.22454       19.64678        8.72608
O         57.27802       20.47396        8.63753
O         55.32873       19.88701        9.51930
H         58.98250       18.50910        8.64454
H         57.23786       17.19779        6.51902
H         56.00569       17.52873        8.60531
H         55.31682       18.44944        7.22588
N         59.07495       19.80280        6.15456
C         59.50784       20.79147        5.17780
C         58.93844       22.18585        5.36011
O         58.39310       22.72810        4.40981
H         59.79644       19.47166        6.80805
H         59.31599       20.40874        4.15118
H         60.60761       20.91032        5.28106
N         59.11217       22.85980        6.53323
C         58.81786       24.28355        6.71867
C         60.03824       25.04249        7.26972
O         59.88054       26.16067        7.74119
C         57.55767       24.47727        7.58694
C         57.58821       23.76598        8.90409
O         56.68688       23.00097        9.20101
O         58.57934       23.98590        9.77772
H         59.51518       22.34980        7.33271
H         58.56287       24.77543        5.75369
H         56.67752       24.11121        7.01399
H         57.40326       25.56402        7.76349
N         61.29958       24.53184        7.16334
C         62.50767       25.21611        7.60611
C         62.72030       25.28591        9.11026
O         63.76581       25.79594        9.48989
H         61.43468       23.65129        6.65217
H         62.54127       26.23793        7.16868
H         63.38191       24.65616        7.20669
N         61.82129       24.81590       10.02817
C         62.06634       24.86738       11.47271
C         61.89771       23.50376       12.13243
O         61.41065       22.56631       11.51520
C         61.14509       25.90696       12.16062
C         61.42174       27.33932       11.67765
O         59.78999       25.57070       12.00018
H         60.93343       24.42325        9.70162
H         63.11647       25.17965       11.66534
H         61.35783       25.91128       13.25165
H         59.50387       25.87459       11.10042
H         61.22707       27.43853       10.58897
H         60.76430       28.05018       12.22215
H         62.47914       27.61221       11.88003
N         62.32987       23.34207       13.41535
C         62.23559       22.11732       14.20251
C         61.51324       22.44515       15.50986
O         61.86178       23.40705       16.18017
C         63.66564       21.51670       14.38743
C         64.12518       20.94018       13.01292
C         63.69573       20.41552       15.46421
C         65.53419       20.34968       12.98422
H         62.79900       24.14308       13.86681
H         61.63942       21.33886       13.67568
H         64.35667       22.32053       14.72397
H         64.09260       21.74093       12.24505
H         63.41867       20.13839       12.70021
H         63.05047       19.56661       15.17595
H         64.72658       20.03911       15.62000
H         63.36530       20.81318       16.44575
H         66.28122       21.12273       13.25551
H         65.62695       19.47742       13.66221
H         65.75126       19.98726       11.95601
N         60.50393       21.63683       15.93612
C         59.68302       21.83932       17.12463
C         60.11761       20.87027       18.21107
O         61.07443       20.14091       18.01513
C         58.18693       21.58401       16.76019
C         57.67710       22.52579       15.67051
O         58.02524       20.25229       16.33379
H         60.33156       20.77942       15.40898
H         59.80230       22.87108       17.52210
H         57.56061       21.76126       17.66294
H         57.07844       19.99975       16.49539
H         56.60734       22.30446       15.46163
H         57.76037       23.58120       16.00130
H         58.25283       22.38488       14.73400
N         59.43547       20.78684       19.38443
C         59.72528       19.78432       20.40801
C         59.61705       18.37828       19.82931
O         60.51396       17.57407       20.03913
C         58.74583       19.91609       21.60507
C         58.94439       21.23178       22.36592
O         57.41567       19.82061       21.15931
H         58.64340       21.42775       19.53266
H         60.75782       19.92505       20.80082
H         58.96690       19.08065       22.31107
H         56.85801       19.59643       21.94904
H         58.25227       21.26712       23.23387
H         59.98520       21.29682       22.74747
H         58.73984       22.11092       21.72150
N         58.53069       18.02529       19.08854
C         58.28451       16.67544       18.58328
C         59.41274       16.21619       17.67685
O         59.98782       15.16073       17.90005
C         56.95700       16.59258       17.77862
C         55.72551       17.15729       18.51016
C         54.44322       16.89352       17.70712
C         53.21493       17.62672       18.27613
N         53.29314       19.07759       18.06975
H         57.85075       18.76734       18.88920
H         58.19250       15.98515       19.45095
H         56.78173       15.52089       17.53467
H         57.04983       17.15006       16.82010
H         55.85160       18.24664       18.61932
H         55.62405       16.70628       19.52066
H         54.25474       15.79776       17.72600
H         54.56994       17.20318       16.64668
H         53.08991       17.39603       19.35717
H         52.31624       17.25190       17.73909
H         54.07829       19.50275       18.60982
H         53.41160       19.28860       17.05145
H         52.40284       19.51748       18.39564
N         59.76088       16.98834       16.61539
C         60.77370       16.64640       15.61879
C         62.12087       16.43554       16.28351
O         62.68693       15.36117       16.13864
C         60.81433       17.76776       14.55525
C         59.48011       17.80682       13.78443
C         59.29312       19.04383       12.97019
O         59.20035       20.13596       13.49787
O         59.07430       18.94042       11.66293
H         59.26399       17.88662       16.52268
H         60.49158       15.70122       15.10192
H         61.64530       17.62283       13.82971
H         60.97763       18.72289       15.08394
H         58.60756       17.78216       14.46547
H         59.41998       16.90519       13.13733
N         62.67010       17.40318       17.06425
C         63.91342       17.24996       17.79088
H         64.62312       18.04479       17.48250
H         63.71157       17.35365       18.87867
H         64.38688       16.26127       17.61805
H         62.16834       18.28700       17.17478
Ca        58.31562       20.71316       10.56132
O         57.55964       23.49931       12.41774
H         57.29808       24.37435       12.03664
H         56.73811       23.17453       12.86217
O         55.98152       20.41259       12.72046
H         55.49041       20.87152       13.44711
H         55.85931       20.99975       11.93285

Ca 1.0



