%chk=holoCaM.loop3.water2.frame382.chk
%nprocshared=20
%mem=10GB
%nosave
#b3lyp/svp scf=(tight,noincore,xqc) Test 
#IOP(5/87=12) Density=Current Pop=(MK,readradii) iop(6/33=2) iop(6/42=6)

holoCaM.loop3.water2.frame382 

   0  1 
C         68.80855       62.68072       75.62069
C         68.50439       61.32131       76.15875
O         67.84456       60.54877       75.48014
H         68.36932       63.44637       76.29319
H         69.90733       62.81941       75.56143
H         68.37150       62.80055       74.60601
N         68.97553       60.94326       77.37821
C         68.66929       59.63844       77.94014
C         67.20460       59.63515       78.33424
O         66.82709       60.42473       79.19045
C         69.57716       59.35596       79.14861
C         69.55471       57.92499       79.59909
O         70.26231       57.60230       80.53657
O         68.85142       56.97252       78.94965
H         69.57819       61.59675       77.90298
H         68.90463       58.87216       77.16710
H         69.31708       60.03076       79.99363
H         70.62988       59.56464       78.85772
N         66.31251       58.80991       77.72451
C         64.87735       58.88743       77.97601
C         64.49211       57.87394       79.02111
O         63.94800       58.27005       80.04385
C         64.08156       58.74887       76.66011
C         64.44432       59.89809       75.70480
C         63.66369       59.86415       74.38720
C         64.12576       60.96577       73.41011
N         63.92332       62.31756       73.93908
H         66.65430       58.14110       77.01691
H         64.61046       59.88786       78.39006
H         62.99373       58.79953       76.88701
H         64.29617       57.76966       76.17825
H         65.52070       59.83269       75.46442
H         64.24193       60.85765       76.22519
H         62.57607       59.97160       74.58958
H         63.83353       58.88233       73.89365
H         63.54677       60.85870       72.46666
H         65.20248       60.82380       73.16549
H         62.92231       62.45709       74.20672
H         64.54367       62.49347       74.76108
H         64.17597       63.01239       73.19973
N         64.78227       56.55204       78.86613
C         64.46160       55.56575       79.89652
C         65.15451       55.83963       81.23652
O         64.76144       55.22710       82.21966
C         64.74735       54.12668       79.41884
C         66.20505       53.85246       79.16683
O         66.84178       52.91350       79.88999
O         66.81046       54.45074       78.29235
H         65.22314       56.25317       77.98507
H         63.36470       55.63973       80.07130
H         64.17864       53.92510       78.48577
H         64.38297       53.42019       80.19591
N         66.16277       56.75299       81.36574
C         66.73106       57.14123       82.64629
C         67.38723       56.00177       83.38643
O         66.97813       55.72068       84.50439
H         66.52398       57.24133       80.53490
H         65.92664       57.58399       83.27470
H         67.49810       57.92902       82.48036
N         68.43990       55.32946       82.83912
C         69.18193       54.28366       83.54190
C         70.64422       54.67595       83.76119
O         71.34723       53.94514       84.44420
C         68.98810       52.91662       82.83688
C         69.93639       52.53109       81.68196
N         69.35627       51.55556       80.76839
O         70.56738       53.57168       81.00200
H         68.72805       55.59799       81.89700
H         68.73270       54.16296       84.55183
H         67.92371       52.84370       82.52259
H         69.14416       52.11047       83.58631
H         69.07274       50.71258       81.31730
H         70.09661       51.25266       80.09686
N         71.16079       55.82908       83.23006
C         72.49994       56.32929       83.48040
C         73.36054       56.43531       82.23540
O         74.45328       56.96969       82.36564
H         70.57625       56.43507       82.64745
H         73.04456       55.69740       84.21417
H         72.39454       57.34321       83.92303
N         73.00436       55.88892       81.03010
C         73.93463       55.81762       79.89879
C         73.26329       56.16289       78.57422
O         72.04418       56.23097       78.50347
C         74.46260       54.36911       79.79510
C         74.90637       53.83747       81.13848
C         74.08365       52.91778       81.81304
C         76.09394       54.27179       81.74898
C         74.43130       52.44990       83.07892
C         76.44925       53.78762       83.01518
C         75.61354       52.87928       83.68554
O         75.93118       52.41543       84.91080
H         72.11733       55.37968       80.95626
H         74.79022       56.50732       80.06999
H         75.26838       54.26235       79.03600
H         73.61266       53.74812       79.44968
H         73.15506       52.58101       81.36977
H         76.74106       54.98072       81.24774
H         73.77439       51.75718       83.58980
H         77.36822       54.12361       83.47845
H         76.73674       52.68616       85.37267
N         74.02894       56.36365       77.46520
C         73.50855       56.57054       76.11446
C         74.26348       55.65058       75.16495
O         75.48498       55.71980       75.12167
C         73.64336       58.07361       75.70596
C         72.62991       58.90580       76.54289
C         73.39362       58.28218       74.19544
C         72.63205       60.40720       76.25382
H         75.05388       56.38295       77.58791
H         72.42493       56.32037       76.05413
H         74.68217       58.41505       75.91079
H         72.85554       58.77501       77.62137
H         71.59797       58.52939       76.35739
H         73.54952       59.33935       73.90329
H         74.12099       57.70466       73.59004
H         72.36602       57.98425       73.91728
H         71.90096       60.90685       76.92323
H         73.63864       60.83523       76.43591
H         72.31292       60.62131       75.21326
N         73.58894       54.82444       74.31168
C         74.25848       54.04131       73.27462
C         74.16791       54.77114       71.94870
O         73.51270       55.80120       71.88327
C         73.64270       52.63332       73.17791
O         72.29825       52.69622       72.77366
H         72.55879       54.85864       74.30880
H         75.33919       53.93811       73.51442
H         73.73969       52.09663       74.14941
H         74.19441       52.02534       72.43017
H         71.74239       52.71558       73.59520
N         74.83382       54.31903       70.84585
C         74.76487       55.02390       69.56822
C         73.35752       55.00953       69.00234
O         73.02386       55.90132       68.23404
C         75.73495       54.43058       68.54680
H         75.42112       53.47483       70.92771
H         75.07239       56.07968       69.74743
H         76.77169       54.47412       68.94280
H         75.47298       53.37338       68.32952
H         75.69807       55.01500       67.60191
N         72.47512       54.02481       69.33874
C         71.08514       54.02769       68.90793
C         70.37730       55.22148       69.51446
O         69.80940       56.02003       68.78261
C         70.38941       52.73099       69.34428
H         72.79776       53.25003       69.93789
H         71.03646       54.06747       67.79623
H         70.40929       52.61132       70.44832
H         69.33238       52.73032       69.00266
H         70.90384       51.85799       68.88837
N         70.40015       55.41009       70.86596
C         69.75196       56.53662       71.53224
C         70.35659       57.87743       71.12987
O         69.74178       58.89673       71.41367
C         69.88568       56.40869       73.06647
C         69.19587       55.16911       73.65067
C         69.46260       55.07911       75.12778
O         69.07424       56.07243       75.95023
O         70.04192       54.10834       75.58828
H         70.90306       54.71574       71.43735
H         68.67528       56.53181       71.25044
H         69.45110       57.30875       73.55621
H         70.96665       56.36116       73.31045
H         69.57407       54.24551       73.16496
H         68.10131       55.23261       73.47510
N         71.57509       57.96972       70.52763
C         72.17592       59.23989       70.18793
H         73.18738       59.07475       69.75814
H         71.54930       59.76676       69.43871
H         72.27986       59.86707       71.09934
H         72.11879       57.12337       70.32983
Ca        69.24090       54.88924       79.71805
O         68.71169       52.05672       77.54369
H         67.85167       51.80589       77.12243
H         69.33661       51.33461       77.28275
O         71.60745       52.82670       78.10464
H         72.17435       52.71100       77.30142
H         71.96779       52.17493       78.75734

Ca 1.0



