%chk=holoCaM.loop4.water3.frame200.chk
%nprocshared=20
%mem=10GB
%nosave
#b3lyp/svp scf=(tight,noincore,xqc) Test 
#IOP(5/87=12) Density=Current Pop=(MK,readradii) iop(6/33=2) iop(6/42=6)

holoCaM.loop4.water3.frame200 

   -3  1 
C         19.99932       41.78785       73.74158
C         20.73246       40.51825       74.00073
O         20.47157       39.88516       75.01077
H         19.10411       41.85384       74.39686
H         20.67620       42.64203       73.93665
H         19.65875       41.79921       72.68496
N         21.64315       40.06221       73.09575
C         22.22170       38.73648       73.17748
C         23.55339       38.64842       72.41467
O         23.65677       39.12572       71.29487
C         21.19931       37.72089       72.60957
C         21.64761       36.31755       72.79927
O         21.31439       35.45013       72.00758
O         22.61581       36.08241       73.69295
H         21.75189       40.58651       72.21610
H         22.39203       38.47663       74.24983
H         21.02104       37.91077       71.53234
H         20.23032       37.79973       73.14636
N         24.57120       37.92176       72.95262
C         25.84593       37.57799       72.32709
C         25.87181       36.08439       71.98200
O         26.35260       35.74094       70.91075
C         27.01549       37.89911       73.32368
C         27.12794       39.42597       73.54407
C         28.35821       37.28783       72.85522
C         28.13833       39.80767       74.63144
H         24.40452       37.52015       73.87394
H         26.01555       38.15034       71.38633
H         26.78627       37.42793       74.30597
H         26.13942       39.80341       73.87570
H         27.39674       39.93930       72.59455
H         29.19724       37.54363       73.53136
H         28.30139       36.17791       72.88200
H         28.60609       37.61037       71.82379
H         28.06301       40.89413       74.84405
H         27.92608       39.24938       75.56856
H         29.17977       39.60339       74.30934
N         25.46886       35.14914       72.89260
C         25.79562       33.71982       72.82585
C         24.64759       32.72315       72.59746
O         24.95187       31.56418       72.35204
C         26.56798       33.33739       74.11598
C         25.86010       33.58335       75.43907
O         24.67850       34.21256       75.51887
O         26.42505       33.28625       76.47625
H         25.02532       35.50488       73.73496
H         26.47166       33.55903       71.95820
H         27.50762       33.92815       74.14393
H         26.83043       32.26145       74.07034
N         23.33682       33.06485       72.62928
C         22.23684       32.14143       72.36163
C         22.10462       31.04503       73.40858
O         21.99190       29.88408       73.04200
H         23.10180       34.02960       72.83524
H         22.34282       31.70755       71.34092
H         21.28885       32.72150       72.36777
N         22.05416       31.36387       74.73423
C         21.87453       30.39603       75.83012
C         20.53037       30.55882       76.55155
O         20.26367       29.82034       77.49071
C         23.01825       30.51613       76.87386
C         23.16485       31.84688       77.56605
O         22.56878       32.83623       77.18864
O         23.99167       31.94678       78.62103
H         22.12938       32.36315       74.96028
H         21.89399       29.35847       75.42949
H         23.99701       30.27431       76.41425
H         22.82023       29.76787       77.67142
N         19.63508       31.49958       76.15662
C         18.36814       31.78878       76.80877
C         18.50451       32.44801       78.17211
O         17.51925       32.49028       78.89480
H         19.85059       32.01793       75.31534
H         17.75803       30.86389       76.85416
H         17.81557       32.52687       76.18696
N         19.67490       33.02560       78.56898
C         19.86255       33.76074       79.81698
C         20.56288       35.09195       79.56128
O         21.18118       35.25374       78.51911
C         20.66874       32.91069       80.81717
C         19.91767       31.60005       81.11635
C         20.45035       30.82562       82.29138
N         19.81416       29.69571       82.67810
O         21.42416       31.21882       82.91696
H         20.46758       32.96669       77.93838
H         18.87231       33.97915       80.27612
H         20.77706       33.49374       81.75695
H         21.68591       32.68273       80.42276
H         19.93351       30.94962       80.21341
H         18.86307       31.84623       81.35987
H         18.98377       29.36190       82.16529
H         20.13723       29.16257       83.49815
N         20.53534       36.08296       80.49975
C         21.17684       37.38590       80.31748
C         22.41368       37.48068       81.19560
O         22.34801       37.20992       82.38566
C         20.17732       38.56715       80.52481
C         19.58727       38.62661       81.94024
C         20.82943       39.92717       80.20170
H         20.04090       35.89682       81.38341
H         21.50835       37.48873       79.26464
H         19.34323       38.42789       79.80104
H         18.86255       39.46441       82.01444
H         19.04247       37.69628       82.18811
H         20.38687       38.79451       82.69103
H         20.07365       40.74066       80.25058
H         21.63687       40.16841       80.92497
H         21.24973       39.92781       79.17678
N         23.57996       37.91506       80.64596
C         24.83210       38.10364       81.36197
C         25.01736       39.58962       81.66376
O         24.23779       40.39008       81.18315
C         25.95399       37.49024       80.47821
C         27.35136       37.82530       80.90640
N         27.80155       37.47812       82.12756
O         28.08908       38.42301       80.13618
H         23.56579       38.20993       79.66480
H         24.79294       37.59833       82.35035
H         25.83748       37.85424       79.43079
H         25.83258       36.38470       80.45701
H         27.18990       36.98176       82.79113
H         28.75251       37.74228       82.41366
N         25.96158       40.01417       82.55463
C         26.16888       41.41338       82.94504
C         26.69676       42.29137       81.81529
O         26.51316       43.49872       81.89918
C         27.02522       41.50880       84.23823
C         28.32896       40.73724       84.19036
C         29.47602       41.26381       83.57659
C         28.39613       39.45982       84.78161
C         30.66564       40.52265       83.55583
C         29.57553       38.71657       84.74344
C         30.71553       39.24413       84.13423
O         31.84964       38.51583       84.11230
H         26.49020       39.29031       83.04437
H         25.17141       41.82970       83.21474
H         26.40198       41.05318       85.03871
H         27.20274       42.55759       84.56441
H         29.45577       42.24895       83.12913
H         27.52274       39.02442       85.25256
H         31.54852       40.94013       83.08943
H         29.59695       37.72595       85.18203
H         32.66652       38.84818       83.71478
N         27.32879       41.77525       80.72053
C         27.66769       42.58689       79.55040
C         26.46627       42.74949       78.62471
O         26.46774       43.65766       77.80503
C         28.82331       41.96603       78.75285
C         30.12273       41.93691       79.56110
C         31.25232       41.51320       78.67213
O         31.38850       40.22325       78.31253
O         32.01850       42.35074       78.22240
H         27.52675       40.76864       80.69291
H         27.98907       43.59947       79.88975
H         28.99845       42.60179       77.85511
H         28.55257       40.94258       78.40910
H         30.05418       41.26596       80.44635
H         30.32494       42.96693       79.92678
N         25.41369       41.88840       78.69346
C         24.18412       42.01599       77.91884
C         23.13708       42.79521       78.71434
O         22.16276       43.23564       78.12022
C         23.62010       40.60642       77.61955
C         24.55115       39.74076       76.75233
C         24.13809       38.29168       76.71477
O         24.84585       37.48093       76.14488
O         23.03020       37.85970       77.34044
H         25.47536       41.11003       79.35414
H         24.38579       42.55832       76.96893
H         22.62374       40.66540       77.13042
H         23.48934       40.11572       78.60259
H         25.57950       39.76312       77.16679
H         24.56766       40.14735       75.71869
N         23.25505       42.98636       80.06187
C         22.26490       43.67259       80.86223
H         21.29347       43.13211       80.83841
H         22.60923       43.71024       81.91976
H         22.13475       44.70973       80.49536
H         24.06954       42.62369       80.56532
Ca        22.71893       35.23749       75.75966
O         24.39111       35.22478       78.42749
H         23.92951       34.39431       78.69380
H         25.12075       34.92076       77.83661
O         20.15589       34.23638       74.98548
H         19.56444       33.83673       74.30260
H         20.54041       34.99563       74.50976
O         20.47499       36.99603       76.39298
H         20.40377       37.65271       75.66286
H         19.60446       37.04833       76.85737

Ca 1.0



