%chk=holoCaM-CaMKII.loop2.water1.frame490.chk
%nprocshared=20
%mem=10GB
%nosave
#b3lyp/svp scf=(tight,noincore,xqc) Test 
#IOP(5/87=12) Density=Current Pop=(MK,readradii) iop(6/33=2) iop(6/42=6)

holoCaM-CaMKII.loop2.water1.frame490 

   -2  1 
C         87.93755       81.36589      102.82581
C         88.30730       81.52984      104.27832
O         89.40779       81.16344      104.66026
H         86.91904       81.76071      102.61610
H         88.65467       81.92690      102.18970
H         87.95753       80.29398      102.54125
N         87.42444       82.09805      105.14267
C         87.69587       82.37691      106.55229
C         87.95729       81.12168      107.37809
O         87.12282       80.22745      107.37758
C         86.48767       83.13008      107.14205
C         86.66466       83.42721      108.59748
O         87.61986       84.08065      108.97820
O         85.77592       82.95243      109.49024
H         86.51167       82.39114      104.75890
H         88.57303       83.05351      106.62135
H         85.56705       82.51985      107.01317
H         86.35301       84.08761      106.59346
N         89.07211       81.03701      108.17200
C         89.35252       79.91307      109.06381
C         89.49166       80.30598      110.54776
O         89.63219       79.39423      111.35089
C         90.63836       79.22439      108.59261
H         89.75583       81.80429      108.14265
H         88.52777       79.17076      109.00341
H         90.52509       78.88805      107.53967
H         91.49839       79.92714      108.64867
H         90.86212       78.33440      109.21863
N         89.50540       81.60238      110.99477
C         89.70688       81.97582      112.41113
C         88.64075       82.92539      112.96911
O         88.71077       83.23281      114.15179
C         91.10390       82.61488      112.60096
C         91.35848       83.67213      111.57421
O         92.28161       83.52850      110.78750
O         90.47765       84.66585      111.37089
H         89.44049       82.36028      110.30222
H         89.67658       81.07429      113.06023
H         91.87604       81.82469      112.47268
H         91.21729       83.02703      113.62663
N         87.63755       83.43558      112.20718
C         86.61701       84.33779      112.71819
C         87.17282       85.66481      113.19407
O         86.93546       86.02122      114.33972
H         87.56818       83.15863      111.22627
H         86.05859       83.83699      113.54013
H         85.89311       84.55715      111.90428
N         87.88886       86.46656      112.35234
C         88.34461       87.81293      112.70942
C         87.79514       88.87875      111.75354
O         88.15715       90.03798      111.90295
C         89.88715       87.87054      112.81633
C         90.66997       87.64200      111.55014
N         92.01776       87.74054      111.57536
O         90.10785       87.37471      110.50283
H         88.09955       86.11076      111.40801
H         87.98068       88.08536      113.72470
H         90.21904       87.12512      113.57135
H         90.16507       88.87870      113.19483
H         92.51358       87.96693      112.44929
H         92.56843       87.60249      110.71862
N         86.88473       88.57672      110.77948
C         86.29813       89.56503      109.88345
C         87.21714       90.06598      108.78033
O         86.74553       90.85486      107.97404
H         86.51632       87.61889      110.70815
H         85.89652       90.41504      110.47649
H         85.43959       89.08708      109.36276
N         88.50767       89.64552      108.64540
C         89.38392       90.04596      107.54394
C         89.85200       88.83388      106.75474
O         89.66897       87.71062      107.19859
C         90.60956       90.82372      108.09368
C         90.19670       92.19489      108.62642
O         91.23887       90.10864      109.12888
H         88.89036       88.99873      109.33838
H         88.83717       90.69014      106.82215
H         91.34305       91.02393      107.27952
H         91.70149       89.33389      108.71708
H         91.09162       92.73615      109.00167
H         89.74612       92.79609      107.80749
H         89.46356       92.09852      109.45409
N         90.52323       89.00498      105.57896
C         91.11265       87.90174      104.83314
C         92.59458       87.91958      105.12573
O         93.28684       88.84067      104.71326
C         90.77813       87.98665      103.30735
C         89.27615       87.67458      103.07470
C         91.66121       87.02968      102.47588
C         88.81437       87.88028      101.62719
H         90.70365       89.96488      105.24756
H         90.72294       86.93570      105.20558
H         91.00312       89.02027      102.96275
H         88.65806       88.33858      103.71458
H         89.06780       86.62061      103.36791
H         91.48355       85.97556      102.76485
H         91.47561       87.14204      101.39024
H         92.73511       87.26888      102.60782
H         89.33957       87.20724      100.91994
H         87.73107       87.64963      101.54881
H         88.97645       88.93468      101.32011
N         93.13724       86.92533      105.88469
C         94.55887       86.83894      106.18875
C         95.31478       86.43389      104.93778
O         94.69329       86.17052      103.92243
C         94.82232       85.80523      107.30735
C         94.14866       86.17369      108.60141
O         92.93297       86.23684      108.67175
O         94.88811       86.41450      109.70069
H         92.51070       86.20669      106.26819
H         94.91368       87.83078      106.54813
H         95.91346       85.75323      107.50406
H         94.47716       84.79761      106.99083
N         96.67366       86.37455      104.93155
C         97.41990       86.00107      103.73744
C         97.16697       84.54099      103.34274
O         96.76670       84.34204      102.20245
C         98.91110       86.36797      103.89450
C         99.70203       86.15711      102.62573
C         99.34618       86.82364      101.43715
C        100.82151       85.30897      102.62484
C        100.09297       86.63680      100.27184
C        101.56984       85.13090      101.45751
C        101.20520       85.79274      100.28204
H         97.18698       86.65185      105.78084
H         97.05422       86.64975      102.91178
H         99.37448       85.82290      104.73300
H         98.97458       87.44838      104.14944
H         98.49514       87.49145      101.40618
H        101.12032       84.79167      103.52801
H         99.81100       87.15139       99.36218
H        102.43501       84.48148      101.46548
H        101.78602       85.65462       99.37979
N         97.32422       83.46782      104.18948
C         97.01164       82.08315      103.83302
C         95.65386       81.91798      103.17658
O         95.54983       81.24529      102.16214
C         97.00148       81.35401      105.18543
C         98.06389       82.10276      105.94320
C         97.74115       83.54890      105.57889
H         97.82038       81.68355      103.18029
H         96.04639       81.54937      105.72656
H         97.14150       80.25379      105.11668
H         98.10587       81.89902      107.03441
H         99.04522       81.83289      105.48928
H         96.89711       83.94851      106.17923
H         98.65660       84.13530      105.75107
N         94.57060       82.54088      103.71610
C         93.21385       82.44014      103.18678
C         93.18020       82.89929      101.74337
O         92.73879       82.14257      100.88979
C         92.23983       83.29573      104.02599
C         92.18946       82.86090      105.49863
C         91.30675       83.73711      106.32894
O         91.37666       83.60727      107.65733
O         90.58616       84.58914      105.83693
H         94.74280       83.14045      104.53390
H         92.87083       81.38238      103.24336
H         91.21727       83.22248      103.59403
H         92.56791       84.35639      103.99281
H         93.19528       82.94189      105.95100
H         91.86125       81.80487      105.59922
N         93.66648       84.12357      101.40061
C         93.70486       84.63036      100.04646
H         94.76214       84.80645       99.75542
H         93.25000       83.92725       99.31887
H         93.15682       85.59401      100.00147
H         94.05865       84.72485      102.13327
Ca        90.35339       84.90813      109.15729
O         87.43247       86.73832      108.28051
H         86.53771       86.42704      108.56175
H         87.58991       86.29194      107.41061

Ca 1.0



