%chk=holoCaM-CaMKII.loop2.water2.frame255.chk
%nprocshared=20
%mem=10GB
%nosave
#b3lyp/svp scf=(tight,noincore,xqc) Test 
#IOP(5/87=12) Density=Current Pop=(MK,readradii) iop(6/33=2) iop(6/42=6)

holoCaM-CaMKII.loop2.water2.frame255 

   -2  1 
C        106.86242       96.30019       46.90616
C        107.18501       95.57625       45.63050
O        107.70094       94.46913       45.67497
H        105.76800       96.48452       46.95969
H        107.16798       95.70719       47.79361
H        107.39098       97.27689       46.92651
N        106.89233       96.16276       44.43953
C        107.12518       95.53852       43.14212
C        108.59902       95.24135       42.90936
O        109.41716       96.14453       43.01239
C        106.60584       96.46640       42.02640
C        106.77245       95.83970       40.67584
O        107.45023       96.38246       39.81868
O        106.18290       94.66321       40.41460
H        106.45537       97.09807       44.46458
H        106.53788       94.59352       43.09485
H        107.14604       97.43775       42.06105
H        105.52364       96.66254       42.18377
N        108.98609       93.99040       42.52566
C        110.36226       93.61385       42.22168
C        110.54644       93.18675       40.76131
O        111.66929       92.86069       40.40139
C        110.76409       92.46061       43.15087
H        108.26125       93.26791       42.42439
H        111.04839       94.46773       42.40753
H        110.65243       92.76676       44.21274
H        110.11685       91.57404       42.97088
H        111.82096       92.16456       42.98085
N        109.50386       93.12596       39.87663
C        109.62106       92.61255       38.50948
C        109.06388       93.58235       37.46273
O        109.79150       93.90036       36.53228
C        109.03488       91.17054       38.41906
C        107.64169       90.92697       38.95261
O        107.23263       89.78338       39.07085
O        106.88732       91.94759       39.38070
H        108.56842       93.38493       40.20437
H        110.69335       92.46421       38.24508
H        109.69968       90.53874       39.04973
H        109.11403       90.79387       37.37593
N        107.79480       94.07998       37.52844
C        107.17557       94.91678       36.51326
C        105.92377       94.27177       35.92633
O        105.28833       94.90571       35.09621
H        107.21237       93.87521       38.33672
H        107.87797       95.13403       35.68066
H        106.89367       95.88284       36.98450
N        105.51934       93.01167       36.27790
C        104.37155       92.32153       35.68306
C        102.99474       92.89936       36.04578
O        102.00643       92.35339       35.57398
C        104.42929       90.80840       36.01535
C        104.29750       90.43703       37.47286
N        104.30346       89.13142       37.82410
O        104.18689       91.29369       38.33590
H        106.10147       92.47417       36.93226
H        104.47956       92.38045       34.57731
H        105.39794       90.40372       35.64780
H        103.61817       90.29321       35.45749
H        104.40088       88.39554       37.10986
H        104.20354       88.85036       38.80748
N        102.83466       94.00043       36.83453
C        101.53385       94.59674       37.12321
C        100.67731       93.85195       38.13843
O         99.60349       94.35544       38.43724
H        103.66315       94.49902       37.17927
H        100.97308       94.74294       36.17371
H        101.70770       95.60346       37.56073
N        101.07146       92.69143       38.73782
C        100.30059       92.01214       39.78517
C        101.11600       91.91488       41.06831
O        102.27736       92.29872       41.06199
C         99.86121       90.61111       39.28784
C         98.82190       90.73954       38.17189
O        100.95760       89.87590       38.80378
H        101.96546       92.27000       38.46193
H         99.39012       92.59252       40.04973
H         99.36190       90.04417       40.10524
H        101.53228       89.65536       39.58136
H         97.92991       91.28755       38.54662
H         99.23802       91.28413       37.29845
H         98.49447       89.73129       37.84094
N        100.57768       91.38922       42.21315
C        101.35290       91.24874       43.44281
C        101.74613       89.79124       43.57319
O        100.87441       88.95335       43.76701
C        100.56760       91.69152       44.72468
C         99.87117       93.06603       44.59144
C        101.52154       91.68285       45.93987
C         98.97073       93.38251       45.79830
H         99.61507       91.01972       42.19389
H        102.27302       91.86817       43.36878
H         99.75730       90.94718       44.89365
H         99.20786       93.04525       43.70131
H        100.61870       93.87637       44.45591
H        102.31583       92.45110       45.81866
H        100.99076       91.86343       46.89412
H        102.00569       90.70034       46.04729
H         98.22239       92.57243       45.94512
H         99.55362       93.50223       46.73378
H         98.42565       94.33306       45.62796
N        103.04695       89.41004       43.45885
C        103.47451       88.02779       43.64991
C        103.39130       87.67525       45.12709
O        103.09369       88.53796       45.93326
C        104.91660       87.81337       43.14183
C        105.03832       88.06338       41.66351
O        104.79261       89.28347       41.15797
O        105.37476       87.16128       40.91320
H        103.74706       90.12395       43.23075
H        102.80761       87.35791       43.06247
H        105.21266       86.75974       43.32733
H        105.62260       88.47576       43.68700
N        103.63700       86.41006       45.56063
C        103.57823       86.05579       46.97384
C        104.64496       86.77375       47.80541
O        104.25091       87.40435       48.78040
C        103.66483       84.53014       47.16440
C        103.55452       84.15499       48.62590
C        104.62563       83.51428       49.26960
C        102.39146       84.45342       49.36194
C        104.53747       83.18115       50.62409
C        102.30836       84.11839       50.71667
C        103.38066       83.48302       51.34723
H        103.83811       85.67704       44.86558
H        102.57482       86.35364       47.35335
H        104.61413       84.15515       46.73813
H        102.83857       84.04005       46.60532
H        105.53183       83.27963       48.72563
H        101.54970       84.94666       48.89239
H        105.36844       82.69082       51.11348
H        101.41294       84.35289       51.27828
H        103.31561       83.22523       52.39624
N        105.99398       86.74141       47.54093
C        106.99252       87.35211       48.41154
C        106.94267       88.87182       48.40693
O        107.65023       89.48198       49.19424
C        108.32074       86.81592       47.86858
C        108.02519       86.70896       46.38776
C        106.61997       86.11021       46.39435
H        106.86101       87.00522       49.46075
H        109.22374       87.40132       48.14542
H        108.45365       85.77280       48.23574
H        107.96711       87.74632       45.98334
H        108.76284       86.13859       45.78484
H        106.14409       86.36817       45.43155
H        106.64769       85.01337       46.55196
N        106.12695       89.54788       47.55588
C        105.96023       90.99122       47.57330
C        104.90536       91.31160       48.60616
O        105.17748       92.06775       49.52862
C        105.60384       91.47224       46.14975
C        106.77107       91.11509       45.20907
C        106.51692       91.36871       43.76336
O        107.37859       91.05068       42.95983
O        105.35856       91.87543       43.30815
H        105.56718       89.02346       46.87143
H        106.91316       91.49810       47.85151
H        105.43523       92.57173       46.13667
H        104.67341       90.96918       45.80606
H        106.99280       90.03050       45.27908
H        107.67946       91.67641       45.51824
N        103.69288       90.69762       48.55381
C        102.68398       90.86424       49.57326
H        101.80113       90.23393       49.33030
H        103.08678       90.53284       50.55483
H        102.36791       91.92511       49.63162
H        103.49244       90.04756       47.78523
Ca       105.43266       92.01320       41.07776
O        103.71558       94.43878       43.18503
H        103.53629       93.86354       43.96963
H        103.95105       95.31766       43.57386
O        103.54055       94.43005       39.74497
H        103.10553       94.63738       40.60746
H        103.82818       95.31210       39.40179

Ca 1.0



