%chk=holoCaM.loop1.water2.frame209.chk
%nprocshared=20
%mem=10GB
%nosave
#b3lyp/svp scf=(tight,noincore,xqc) Test 
#IOP(5/87=12) Density=Current Pop=(MK,readradii) iop(6/33=2) iop(6/42=6)

holoCaM.loop1.water2.frame209 

   0  1 
C         16.14005       69.21282      100.72218
C         16.63118       68.74377      102.05558
O         15.93856       68.91080      103.04850
H         15.14367       69.69194      100.81609
H         16.86089       69.95908      100.32549
H         16.07335       68.36005      100.01421
N         17.84357       68.13898      102.14347
C         18.44650       67.73316      103.40494
C         18.93810       68.99459      104.14011
O         19.95862       69.56112      103.77756
C         19.52980       66.68361      103.08207
C         20.45135       66.24900      104.16700
O         20.28498       66.59362      105.44840
O         21.55244       65.86302      103.82015
H         18.36371       67.98036      101.26513
H         17.68293       67.20524      104.01245
H         20.18330       67.10897      102.29209
H         19.05249       65.77613      102.65429
N         18.14857       69.54517      105.10782
C         18.35357       70.81022      105.81852
C         19.55692       70.86502      106.73992
O         20.09084       71.94904      106.93046
C         17.08077       71.15310      106.63299
C         16.77103       70.20855      107.83435
C         15.30957       70.36161      108.28227
C         15.04038       71.70549      108.97382
N         13.64340       72.09963      108.81109
H         17.24947       69.09170      105.25685
H         18.45960       71.60574      105.04841
H         16.23676       71.10207      105.90848
H         17.14716       72.19760      106.99286
H         17.48269       70.34532      108.67718
H         16.87102       69.17026      107.51342
H         15.00081       69.54104      108.97050
H         14.68531       70.25270      107.36824
H         15.65710       72.51553      108.54227
H         15.31393       71.61987      110.05006
H         13.46254       72.27522      107.79378
H         12.99584       71.35794      109.15964
H         13.47874       72.99237      109.32847
N         19.98197       69.76046      107.40961
C         21.08472       69.76339      108.37262
C         22.32045       69.04190      107.82633
O         23.33349       69.02654      108.51145
C         20.60895       69.31064      109.78708
C         19.85948       68.00713      109.91688
O         19.45511       67.65644      111.01284
O         19.54433       67.26526      108.85088
H         19.50617       68.87607      107.20013
H         21.45106       70.80346      108.52913
H         19.91409       70.09173      110.16899
H         21.48448       69.28500      110.47180
N         22.35987       68.56090      106.54702
C         23.58037       68.12912      105.87330
C         24.18386       66.86441      106.43506
O         25.31843       66.87623      106.88802
H         21.51574       68.61273      105.96464
H         24.31451       68.96096      105.89915
H         23.33835       67.92802      104.80625
N         23.45758       65.72269      106.40481
C         23.87482       64.42527      106.92057
C         23.70805       63.31187      105.87955
O         23.80893       62.15175      106.25516
C         23.08779       64.16856      108.22930
C         21.59883       64.33197      108.13886
O         20.88860       64.54661      109.26173
O         21.03354       64.34818      107.06276
H         22.51095       65.79943      106.03163
H         24.94539       64.42715      107.22201
H         23.43249       64.94642      108.94220
H         23.32615       63.18042      108.67882
N         23.52690       63.57408      104.54633
C         23.39780       62.52094      103.54415
C         22.06999       61.77996      103.59686
O         21.94997       60.77405      102.91251
H         23.55687       64.54452      104.20928
H         24.24039       61.80563      103.67639
H         23.49005       62.95106      102.52319
N         21.03411       62.20404      104.37813
C         19.77482       61.47200      104.53443
C         18.55551       62.38808      104.55233
O         18.56266       63.40880      105.22658
C         19.77979       60.56409      105.80663
C         20.53702       59.26422      105.55779
O         20.30383       61.15871      106.96699
H         21.15959       63.06156      104.92963
H         19.61941       60.78559      103.67486
H         18.72849       60.26971      106.01286
H         20.49933       62.10339      106.79141
H         20.40523       58.59773      106.43643
H         20.11142       58.74509      104.67189
H         21.61829       59.44955      105.39781
N         17.41879       61.98737      103.90004
C         16.15664       62.71908      103.88082
C         15.07130       61.95368      104.66750
O         14.62797       60.89239      104.25511
C         15.77813       63.03473      102.39114
C         16.65160       64.22488      101.90318
C         14.27745       63.30601      102.18857
C         16.43321       64.63900      100.44714
H         17.43455       61.08628      103.39960
H         16.27661       63.69287      104.39967
H         15.99539       62.13880      101.76707
H         17.71925       63.94169      102.01346
H         16.45860       65.11897      102.53849
H         14.04485       63.49893      101.12243
H         13.68581       62.40453      102.45076
H         13.93788       64.15617      102.79752
H         17.14739       65.45032      100.18858
H         16.60572       63.77887       99.76829
H         15.41203       65.04397      100.29121
N         14.60379       62.50090      105.83139
C         13.48680       62.05763      106.67235
C         12.15879       62.35255      105.98114
O         12.17395       62.82944      104.86254
C         13.50294       62.84660      108.02989
C         14.77639       62.59076      108.85684
O         13.28577       64.22347      107.82209
H         15.08226       63.33149      106.14580
H         13.58909       60.97700      106.90502
H         12.67519       62.50000      108.67944
H         14.15752       64.66312      107.67750
H         14.74250       63.18000      109.79905
H         14.84799       61.51440      109.11600
H         15.68798       62.88548      108.30160
N         10.96656       62.14545      106.61547
C          9.67170       62.58881      106.08491
C          9.58825       64.11026      106.01449
O          9.25623       64.63205      104.95913
C          8.49387       62.06536      106.94479
C          8.34445       60.54779      106.81246
O          8.66733       62.41987      108.29358
H         10.98240       61.68572      107.53656
H          9.52544       62.18146      105.05869
H          7.55747       62.52825      106.55122
H          7.79026       62.29813      108.74159
H          7.46443       60.20792      107.39769
H          8.17362       60.27893      105.74744
H          9.24872       60.02106      107.17954
N          9.86191       64.88690      107.10595
C          9.76767       66.35280      107.10820
C         10.77577       67.02109      106.16003
O         10.73362       68.23587      106.02471
C          9.92003       66.89732      108.55287
C          8.85361       66.35855      109.54106
C          7.42001       66.83152      109.23607
C          6.41799       66.20852      110.22236
N          5.07201       66.74718      110.02335
H         10.14036       64.40793      107.97353
H          8.75987       66.64089      106.74517
H          9.86393       68.00833      108.55423
H         10.92552       66.60760      108.93002
H          9.11592       66.71951      110.55967
H          8.88010       65.25039      109.56989
H          7.11002       66.53542      108.21280
H          7.38676       67.93987      109.31420
H          6.73328       66.41123      111.26950
H          6.40147       65.10529      110.07006
H          4.40454       66.24187      110.65037
H          5.05887       67.76350      110.27095
H          4.76633       66.62151      109.03128
N         11.65918       66.28690      105.42574
C         12.54063       66.80836      104.38964
C         12.01346       66.38903      103.01646
O         12.03515       67.20780      102.10825
C         13.97784       66.30859      104.65191
C         14.54788       66.95655      105.92100
C         15.92664       66.46065      106.25085
O         16.83817       67.23906      106.34248
O         16.18800       65.17978      106.50504
H         11.70055       65.27460      105.56497
H         12.56035       67.92137      104.38267
H         14.63446       66.56904      103.79328
H         13.97095       65.20409      104.76958
H         13.88681       66.75482      106.78589
H         14.58390       68.05939      105.76991
N         11.44669       65.16793      102.80568
C         10.84968       64.76977      101.55101
H         10.01234       65.45387      101.29752
H         11.60899       64.77595      100.74374
H         10.43636       63.74023      101.64493
H         11.39005       64.49599      103.56636
Ca        18.97333       65.97434      107.13479
O         18.28276       62.94471      108.49726
H         19.24069       62.72439      108.57704
H         17.92939       62.75875      109.40177
O         16.77876       65.76526      109.57826
H         16.10406       65.82930      110.29831
H         17.40191       66.50498      109.77542

Ca 1.0



