%chk=holoCaM.loop3.water2.frame442.chk
%nprocshared=20
%mem=10GB
%nosave
#b3lyp/svp scf=(tight,noincore,xqc) Test 
#IOP(5/87=12) Density=Current Pop=(MK,readradii) iop(6/33=2) iop(6/42=6)

holoCaM.loop3.water2.frame442 

   0  1 
C         21.65425       78.77341       46.95484
C         22.28448       77.52142       46.43036
O         21.69777       76.45701       46.57519
H         20.66994       78.54768       47.41987
H         22.31628       79.23972       47.71128
H         21.48986       79.48195       46.11515
N         23.46796       77.57651       45.75493
C         24.02927       76.39086       45.12975
C         24.60667       75.44837       46.16854
O         25.54407       75.82086       46.86176
C         25.10077       76.74736       44.08788
C         25.35336       75.58138       43.17048
O         24.61801       74.45614       43.27207
O         26.14197       75.69653       42.25551
H         23.91008       78.49583       45.59879
H         23.19341       75.91605       44.57246
H         26.03558       77.09470       44.58122
H         24.72288       77.57092       43.44306
N         24.06978       74.21251       46.34374
C         24.51542       73.30078       47.39163
C         25.84013       72.60933       47.07222
O         26.39094       71.99141       47.97272
C         23.41432       72.26314       47.70520
C         22.11293       72.96920       48.13400
C         21.03367       71.98979       48.59407
C         19.78149       72.76521       49.03244
N         18.76913       71.86810       49.58368
H         23.24916       73.96861       45.77657
H         24.66069       73.90024       48.31883
H         23.76231       71.61656       48.54011
H         23.22182       71.61950       46.81804
H         21.70347       73.57239       47.29609
H         22.34435       73.65372       48.97915
H         21.42595       71.40562       49.45435
H         20.77190       71.28935       47.77041
H         19.35906       73.31499       48.16067
H         20.05995       73.51006       49.81154
H         17.93685       72.43208       49.87152
H         18.47706       71.16629       48.86621
H         19.15057       71.37947       50.42642
N         26.39529       72.63242       45.82388
C         27.67013       71.99250       45.48746
C         28.65758       72.96395       44.83859
O         29.76161       72.53653       44.52739
C         27.45012       70.73477       44.61496
C         26.65085       70.97129       43.37182
O         27.14423       70.78715       42.27129
O         25.35160       71.29722       43.47544
H         25.88089       73.09737       45.06548
H         28.17309       71.62129       46.40751
H         26.90781       69.96782       45.20855
H         28.44130       70.30355       44.35031
N         28.37224       74.28681       44.65145
C         29.34710       75.24261       44.14945
C         29.72382       75.09767       42.68646
O         30.57168       75.86978       42.25965
H         27.46951       74.66942       44.96052
H         30.26541       75.17303       44.77409
H         28.93784       76.26861       44.27301
N         29.16606       74.17500       41.84321
C         29.59177       74.06656       40.44268
C         29.24113       75.30194       39.60662
O         29.69615       75.38412       38.47462
C         29.04692       72.77985       39.77816
C         27.56909       72.82275       39.48286
N         27.10358       72.60729       38.22940
O         26.78353       73.04466       40.38450
H         28.46951       73.51288       42.21157
H         30.69874       73.95536       40.46228
H         29.26154       71.91831       40.44679
H         29.59496       72.60611       38.82728
H         27.74693       72.40380       37.45089
H         26.09172       72.63364       38.03473
N         28.42171       76.28347       40.08686
C         28.08138       77.49773       39.36938
C         26.61150       77.59347       39.00443
O         26.23924       78.64178       38.49567
H         28.02012       76.19289       41.02130
H         28.66232       77.59416       38.42742
H         28.35328       78.35852       40.01864
N         25.73222       76.54964       39.14675
C         24.35354       76.61640       38.65280
C         23.33956       76.22240       39.71435
O         23.72060       75.66308       40.72917
C         24.16464       75.65473       37.45535
C         25.12806       75.87905       36.31089
C         26.49146       75.55146       36.43784
C         24.66284       76.38308       35.08555
C         27.36917       75.73215       35.36746
C         25.54417       76.56853       34.01606
C         26.90106       76.24213       34.15399
O         27.76027       76.40859       33.12880
H         26.06476       75.65280       39.53035
H         24.11824       77.64925       38.31676
H         23.12181       75.77889       37.08960
H         24.27254       74.59827       37.78487
H         26.88172       75.14057       37.35664
H         23.61807       76.63633       34.95703
H         28.41364       75.46898       35.48154
H         25.16979       76.96191       33.07992
H         27.47599       76.75443       32.27093
N         22.00628       76.45541       39.51790
C         20.96078       75.93428       40.39577
C         19.89070       75.22406       39.57023
O         19.20174       75.85928       38.78536
C         20.34733       77.02586       41.33064
C         19.81539       78.27179       40.57263
C         21.37830       77.42188       42.40413
C         19.05661       79.25096       41.47191
H         21.71693       76.99966       38.69080
H         21.39495       75.17157       41.07650
H         19.49766       76.54699       41.86970
H         19.09302       77.96761       39.79447
H         20.65578       78.80355       40.07672
H         20.93893       78.09582       43.16607
H         21.71002       76.51545       42.94940
H         22.26336       77.91359       41.94960
H         19.71013       79.68910       42.25149
H         18.66557       80.08738       40.85520
H         18.19691       78.73785       41.95469
N         19.69148       73.88383       39.70925
C         18.60054       73.15927       39.05962
C         17.25742       73.57088       39.65655
O         17.23024       74.40443       40.54589
C         18.81451       71.64354       39.24314
O         18.80004       71.30884       40.60671
H         20.33361       73.35666       40.31302
H         18.61469       73.36878       37.96728
H         19.79561       71.38020       38.78174
H         18.02832       71.06252       38.71712
H         19.43231       70.55373       40.72709
N         16.09578       72.99778       39.23535
C         14.79990       73.27132       39.85562
C         14.79742       72.85494       41.31851
O         14.40517       73.64843       42.16230
C         13.68969       72.51375       39.12041
H         16.13744       72.31858       38.46075
H         14.56182       74.35604       39.77305
H         12.70489       72.73949       39.58462
H         13.65429       72.83573       38.05815
H         13.86117       71.41704       39.15894
N         15.24726       71.61950       41.68381
C         15.25989       71.12042       43.05824
C         15.95884       72.07939       44.00174
O         15.36820       72.46525       45.00094
C         15.95454       69.75152       43.10921
H         15.61663       71.00670       40.93985
H         14.21186       70.98440       43.40625
H         15.95135       69.35355       44.14644
H         15.42327       69.02837       42.45477
H         17.00832       69.82992       42.76253
N         17.21408       72.52318       43.72830
C         17.94526       73.46024       44.57889
C         17.14773       74.74255       44.75366
O         16.87189       75.11663       45.88544
C         19.35176       73.72026       43.98982
C         20.19060       72.42424       44.04222
C         21.54565       72.57897       43.42965
O         22.64690       72.30883       44.14991
O         21.65694       72.87998       42.25598
H         17.65104       72.19415       42.85516
H         18.09028       73.01374       45.58895
H         19.87405       74.50102       44.58597
H         19.25644       74.08623       42.94224
H         19.68439       71.60469       43.49443
H         20.30627       72.11102       45.10297
N         16.68709       75.43317       43.67857
C         15.84781       76.60450       43.80619
H         14.92481       76.34833       44.37106
H         16.39548       77.41292       44.33245
H         15.54810       76.96612       42.79894
H         16.90298       75.09289       42.73845
Ca        24.41862       72.98379       41.58293
O         24.32339       69.89787       40.97032
H         24.06271       69.51231       41.84415
H         23.62180       69.58869       40.34446
O         23.21636       72.25434       39.06849
H         23.85259       71.63552       38.62974
H         22.75412       72.71109       38.32256

Ca 1.0



