%chk=holoCaM.loop2.water2.frame188.chk
%nprocshared=20
%mem=10GB
%nosave
#b3lyp/svp scf=(tight,noincore,xqc) Test 
#IOP(5/87=12) Density=Current Pop=(MK,readradii) iop(6/33=2) iop(6/42=6)

holoCaM.loop2.water2.frame188 

   -2  1 
C         42.03011       67.38909       86.17222
C         43.52529       67.48149       86.29455
O         44.15030       68.22045       85.55058
H         41.64865       68.06280       85.37635
H         41.73010       66.34534       85.94637
H         41.56483       67.69339       87.13631
N         44.15625       66.78475       87.27438
C         45.57308       66.93018       87.59141
C         46.48030       66.18947       86.60858
O         46.26513       65.00121       86.41126
C         45.81403       66.35727       89.00442
C         47.15874       66.71409       89.55698
O         47.53062       66.23160       90.75636
O         47.89492       67.47999       88.95802
H         43.56471       66.21633       87.90209
H         45.80882       68.01661       87.63848
H         45.69372       65.25206       88.98335
H         45.06668       66.77418       89.71257
N         47.56080       66.79969       86.02485
C         48.51061       66.08888       85.16187
C         49.95753       66.07907       85.68496
O         50.76927       65.40626       85.06433
C         48.47745       66.70903       83.76159
H         47.72144       67.79970       86.20622
H         48.20836       65.02388       85.06474
H         47.44748       66.66142       83.34904
H         48.79882       67.77247       83.80070
H         49.15245       66.15755       83.07176
N         50.37537       66.80586       86.76694
C         51.77708       66.85119       87.22425
C         51.97702       66.54193       88.71435
O         53.12513       66.45940       89.13012
C         52.39092       68.23515       86.91179
C         51.49037       69.36105       87.32022
O         50.82908       69.31859       88.48760
O         51.21282       70.23491       86.51358
H         49.69364       67.41102       87.23752
H         52.38716       66.09574       86.68470
H         52.56425       68.32661       85.81761
H         53.37966       68.33903       87.40822
N         50.94480       66.38511       89.58311
C         51.11166       66.09722       90.99922
C         51.93619       67.12839       91.75487
O         52.85116       66.72516       92.45870
H         49.98617       66.45747       89.23827
H         51.57144       65.09185       91.12351
H         50.10402       66.05536       91.46686
N         51.62738       68.45922       91.72243
C         52.26746       69.45895       92.58513
C         51.28909       69.94654       93.65776
O         51.63819       70.83740       94.41946
C         52.86146       70.63021       91.76382
C         51.83082       71.60931       91.26895
N         51.89654       72.92394       91.58376
O         50.91996       71.21187       90.57788
H         50.85899       68.76267       91.11509
H         53.12839       68.99866       93.11531
H         53.43893       70.22050       90.90628
H         53.57424       71.18897       92.40744
H         52.65423       73.29629       92.17310
H         51.18465       73.57788       91.22503
N         50.06449       69.35824       93.81006
C         49.12220       69.67889       94.86550
C         48.22102       70.87035       94.59631
O         47.31810       71.06214       95.39809
H         49.81916       68.54210       93.23451
H         49.64617       69.76308       95.84237
H         48.42997       68.81202       94.95032
N         48.36501       71.70536       93.52234
C         47.43143       72.80294       93.24585
C         46.93862       72.78714       91.80819
O         47.72894       72.60349       90.89465
C         48.04897       74.19173       93.52514
C         48.30413       74.43564       95.01839
O         49.20680       74.40949       92.76157
H         49.16641       71.57828       92.88802
H         46.54240       72.74541       93.91255
H         47.29976       74.96094       93.22718
H         49.95651       73.94831       93.21801
H         49.04545       73.71535       95.42050
H         48.68335       75.46963       95.16275
H         47.35438       74.33317       95.58717
N         45.64696       73.13990       91.54686
C         45.11146       73.39337       90.20909
C         45.87919       74.51360       89.51776
O         46.16827       75.53772       90.12348
C         43.57400       73.68704       90.29445
C         42.84655       72.32824       90.49318
C         43.02962       74.41624       89.04750
C         41.34235       72.42989       90.73418
H         45.02626       73.30823       92.35363
H         45.23317       72.48524       89.58189
H         43.38320       74.36859       91.15367
H         43.28504       71.79579       91.36378
H         43.01138       71.69668       89.58979
H         43.19403       73.81421       88.13371
H         41.95030       74.64300       89.15000
H         43.52255       75.40487       88.93028
H         40.92914       71.40541       90.85234
H         41.14332       73.00597       91.66077
H         40.81668       72.89807       89.87851
N         46.15234       74.38601       88.18781
C         46.84275       75.36166       87.35421
C         45.85619       75.92142       86.35260
O         44.69136       75.54473       86.41108
C         47.97289       74.66024       86.56977
C         48.83223       73.78773       87.42186
O         48.24252       72.79503       88.10868
O         50.04729       73.90564       87.42584
H         45.81375       73.53866       87.70863
H         47.25973       76.18656       87.97407
H         48.58815       75.39946       86.01255
H         47.50939       73.96828       85.83244
N         46.21326       76.81842       85.39798
C         45.24310       77.31883       84.43649
C         44.76931       76.21303       83.47710
O         43.56583       76.03988       83.38904
C         45.74070       78.59489       83.72463
C         44.62688       79.31442       82.99343
C         43.49729       79.78179       83.69756
C         44.71208       79.55208       81.61186
C         42.47566       80.46068       83.03117
C         43.68796       80.23936       80.94993
C         42.57087       80.69114       81.65841
H         47.18169       77.18158       85.38198
H         44.36725       77.65716       85.03219
H         46.58270       78.37780       83.04477
H         46.12029       79.29993       84.49600
H         43.40186       79.62982       84.76485
H         45.57155       79.21278       81.04806
H         41.61261       80.81252       83.58256
H         43.76095       80.42521       79.88678
H         41.78023       81.22351       81.14593
N         45.62195       75.39761       82.75491
C         45.16294       74.33767       81.84580
C         44.29471       73.25952       82.46983
O         43.79098       72.41586       81.73720
C         46.45992       73.64690       81.40330
C         47.45860       74.77026       81.45985
C         47.06600       75.47166       82.75803
H         44.63184       74.83836       81.00645
H         46.78101       72.92449       82.19323
H         46.38840       73.09479       80.44129
H         48.52169       74.45268       81.40988
H         47.23886       75.45087       80.60693
H         47.44416       74.92910       83.64997
H         47.48058       76.49160       82.72228
N         44.11537       73.18985       83.81293
C         43.36027       72.15287       84.48827
C         42.00354       72.72843       84.82698
O         40.99806       72.16340       84.42266
C         44.15243       71.67634       85.72476
C         45.54389       71.14163       85.31887
C         46.39259       70.73155       86.48653
O         45.94000       70.83571       87.74828
O         47.52222       70.31613       86.28820
H         44.55908       73.89366       84.41619
H         43.20393       71.27019       83.82650
H         43.58293       70.88489       86.25873
H         44.28324       72.53138       86.41672
H         46.10650       71.92962       84.77502
H         45.42215       70.27047       84.64207
N         41.90543       73.91266       85.48915
C         40.64699       74.58380       85.71110
H         39.98471       73.95912       86.34233
H         40.82869       75.55597       86.21899
H         40.15890       74.79140       84.73399
H         42.75655       74.38702       85.80039
Ca        49.32463       70.94971       88.61682
O         45.32243       69.60566       90.75703
H         44.47451       69.10422       90.84687
H         45.58767       69.47050       89.81427
O         48.23869       69.37552       91.25223
H         47.64669       69.13291       92.00616
H         48.72415       68.53735       91.06219

Ca 1.0



