%chk=holoCaM.loop2.water3.frame408.chk
%nprocshared=20
%mem=10GB
%nosave
#b3lyp/svp scf=(tight,noincore,xqc) Test 
#IOP(5/87=12) Density=Current Pop=(MK,readradii) iop(6/33=2) iop(6/42=6)

holoCaM.loop2.water3.frame408 

   -2  1 
C        111.75921      100.37358       14.54788
C        112.65462      101.00166       15.57147
O        112.23334      101.17417       16.70636
H        110.85552      101.00441       14.41856
H        112.26910      100.28790       13.56437
H        111.46190       99.35941       14.88330
N        113.91591      101.37936       15.23371
C        114.82531      102.02592       16.16575
C        114.23639      103.36354       16.59820
O        113.94708      104.18374       15.73770
C        116.18834      102.22805       15.47455
C        117.26933      102.68541       16.39634
O        118.35858      102.95263       15.93628
O        117.08679      102.73531       17.72317
H        114.24004      101.19911       14.27016
H        114.97816      101.35362       17.03930
H        116.07506      102.96224       14.64808
H        116.53863      101.26458       15.04184
N        114.04379      103.65155       17.91719
C        113.46559      104.90311       18.39920
C        114.51883      105.87461       18.91869
O        114.15613      106.99994       19.23276
C        112.39201      104.60908       19.44691
H        114.34608      102.96155       18.60871
H        112.97576      105.43250       17.55275
H        111.90535      105.55174       19.77637
H        111.61408      103.94603       19.01194
H        112.84042      104.10695       20.33072
N        115.84696      105.56068       18.91476
C        116.89690      106.56534       19.00508
C        117.37498      106.91625       17.59629
O        118.21969      107.79262       17.47135
C        118.08524      106.05878       19.85003
C        117.70301      105.78579       21.27625
O        117.20250      106.77199       22.04305
O        117.87936      104.68117       21.76072
H        116.13431      104.62578       18.62224
H        116.50613      107.50384       19.45620
H        118.88261      106.83337       19.86313
H        118.51038      105.14066       19.38433
N        116.87258      106.29032       16.48287
C        117.26701      106.61561       15.12445
C        118.70850      106.28353       14.79226
O        119.11001      106.58773       13.67762
H        116.14339      105.57211       16.56848
H        117.08506      107.69956       14.95576
H        116.62348      106.05015       14.41492
N        119.55966      105.69758       15.68699
C        120.98156      105.53936       15.41361
C        121.23885      104.30741       14.55411
O        121.65206      104.46613       13.41382
C        121.75552      105.52469       16.74678
C        123.24568      105.57269       16.55857
N        123.83002      106.63868       15.96226
O        123.93566      104.65367       16.97197
H        119.22247      105.46022       16.62923
H        121.31550      106.44922       14.86624
H        121.46912      104.63124       17.33783
H        121.46430      106.42009       17.33988
H        123.26601      107.43357       15.62681
H        124.85288      106.67895       15.84876
N        121.00160      103.04748       15.02772
C        121.15253      101.87190       14.17472
C        120.77723      100.51101       14.76891
O        120.85688       99.55633       14.00753
H        120.69534      102.96108       15.99802
H        122.20720      101.81368       13.82641
H        120.49966      102.01358       13.28606
N        120.39339      100.30045       16.06753
C        120.06634       98.97255       16.60222
C        118.71793       98.96819       17.30244
O        118.13042      100.02630       17.47808
C        121.15234       98.53593       17.61884
C        122.52716       98.36618       16.96291
O        121.22253       99.43108       18.70364
H        120.36411      101.08064       16.73148
H        120.02299       98.21918       15.78495
H        120.88355       97.53899       18.02961
H        121.68459      100.25576       18.40148
H        123.26159       98.02939       17.72464
H        122.47106       97.60162       16.15968
H        122.88126       99.32385       16.52680
N        118.18409       97.79851       17.76972
C        116.99479       97.75424       18.61559
C        117.30805       97.10202       19.95933
O        118.37217       96.53169       20.15911
C        115.76657       97.09748       17.90826
C        116.05016       95.64766       17.44344
C        115.28788       97.99920       16.75692
C        114.82212       94.95058       16.84988
H        118.66603       96.91079       17.55923
H        116.69080       98.79236       18.87058
H        114.92801       97.06202       18.63788
H        116.37609       95.04915       18.32104
H        116.86142       95.63596       16.68586
H        116.05657       98.07683       15.96099
H        114.33963       97.62837       16.31819
H        115.06716       99.01365       17.14781
H        113.99864       94.93824       17.59000
H        114.47533       95.44929       15.92198
H        115.07578       93.90247       16.58765
N        116.39552       97.23618       20.95268
C        116.48686       96.75955       22.32249
C        115.22487       95.94359       22.59562
O        114.43823       95.76623       21.67471
C        116.60421       98.01617       23.22494
C        116.84018       97.74561       24.68257
O        116.00498       98.25460       25.60754
O        117.81505       97.10535       25.04087
H        115.54814       97.75662       20.72859
H        117.39536       96.13421       22.46620
H        115.69357       98.64389       23.11462
H        117.47727       98.60882       22.87260
N        114.94122       95.40178       23.80878
C        113.71472       94.64255       24.02628
C        112.45387       95.49111       23.76980
O        111.68096       95.07434       22.91835
C        113.74959       93.92340       25.39522
C        112.49255       93.13990       25.68918
C        112.02915       92.14862       24.80450
C        111.77575       93.38998       26.87246
C        110.86697       91.42958       25.09810
C        110.62059       92.66131       27.16617
C        110.16503       91.68348       26.27899
H        115.61360       95.50254       24.58174
H        113.70254       93.81799       23.27828
H        113.95090       94.62262       26.22330
H        114.60867       93.21789       25.38360
H        112.56001       91.93091       23.88725
H        112.11468       94.14270       27.57376
H        110.51244       90.67248       24.41085
H        110.07999       92.85458       28.08347
H        109.26936       91.12128       26.50779
N        112.15078       96.66832       24.40870
C        110.90572       97.40947       24.19870
C        110.69443       97.88208       22.77111
O        109.57618       97.80832       22.28208
C        111.01793       98.60297       25.15529
C        111.87426       98.02361       26.26331
C        112.93538       97.30635       25.44227
H        110.05692       96.76949       24.52919
H        111.61585       99.41846       24.68636
H        110.03927       99.02311       25.47367
H        112.27087       98.77057       26.98220
H        111.27989       97.26123       26.82022
H        113.59326       98.06231       24.96072
H        113.53518       96.64155       26.07399
N        111.73724       98.37158       22.04204
C        111.61747       98.84257       20.65956
C        111.06765       97.71181       19.80127
O        110.02812       97.89202       19.18284
C        112.98996       99.35115       20.14595
C        113.50536      100.55201       20.98660
C        114.96236      100.86777       20.77706
O        115.38529      102.09877       20.46584
O        115.80476      100.02369       21.00074
H        112.66597       98.36654       22.48908
H        110.91154       99.70146       20.61630
H        112.93687       99.65020       19.07555
H        113.68164       98.50179       20.21466
H        113.42750      100.32684       22.06617
H        112.87503      101.44381       20.78432
N        111.67468       96.49126       19.78965
C        111.13375       95.32629       19.11629
H        110.18522       95.54296       18.58328
H        111.86712       94.93498       18.38682
H        110.93301       94.53444       19.87056
H        112.53844       96.36037       20.32785
Ca       117.63636      102.27730       20.39322
O        120.29543      102.59381       19.14585
H        119.86804      103.12241       18.42633
H        121.18517      103.00947       19.26837
O        118.11920      101.56597       23.33686
H        118.37757      102.51884       23.41029
H        117.66199      101.36476       24.19127
O        119.53131       99.72836       21.16186
H        119.92371       99.81351       22.06667
H        119.78975       98.81945       20.86769

Ca 1.0



