%chk=holoCaM-CaMKII.loop2.water2.frame304.chk
%nprocshared=20
%mem=10GB
%nosave
#b3lyp/svp scf=(tight,noincore,xqc) Test 
#IOP(5/87=12) Density=Current Pop=(MK,readradii) iop(6/33=2) iop(6/42=6)

holoCaM-CaMKII.loop2.water2.frame304 

   -2  1 
C         47.59925       39.35635       45.33235
C         48.70493       40.34562       45.06291
O         48.57197       41.50659       45.41775
H         46.66816       39.66201       44.81386
H         47.87154       38.33558       44.98335
H         47.40949       39.29634       46.42519
N         49.84780       39.92911       44.45686
C         51.03030       40.75798       44.23530
C         50.79839       41.93352       43.28430
O         50.38566       41.71690       42.15381
C         52.15248       39.85153       43.67961
C         53.38513       40.61947       43.35374
O         53.92509       41.47603       44.22830
O         53.82154       40.59581       42.21512
H         49.90092       38.93358       44.18845
H         51.37587       41.15082       45.21674
H         51.80141       39.34854       42.75126
H         52.40350       39.06747       44.41495
N         51.14082       43.20341       43.67170
C         51.10206       44.37590       42.79780
C         52.46566       45.09317       42.67401
O         52.53105       46.04927       41.91329
C         50.05197       45.35356       43.33813
H         51.45803       43.34645       44.63729
H         50.78840       44.07472       41.77477
H         49.94834       46.23372       42.66781
H         49.06371       44.84913       43.40032
H         50.33310       45.70686       44.35408
N         53.57281       44.73081       43.40102
C         54.86740       45.43439       43.35663
C         56.07263       44.52282       43.06241
O         57.18465       45.03157       43.01870
C         55.09748       46.25146       44.66071
C         55.04388       45.52246       45.98816
O         55.25625       46.14492       47.01468
O         54.64859       44.24521       46.08654
H         53.48403       43.95243       44.05750
H         54.86072       46.18978       42.53874
H         54.32544       47.05071       44.70445
H         56.08370       46.76060       44.58257
N         55.94005       43.19121       42.80931
C         57.04169       42.29627       42.46231
C         58.08640       42.03317       43.54486
O         59.03967       41.33098       43.23732
H         54.99892       42.80601       42.75939
H         57.55325       42.70960       41.56670
H         56.61957       41.30711       42.17903
N         58.01652       42.55617       44.80379
C         59.09398       42.39484       45.79131
C         59.27873       40.98024       46.36907
O         60.21324       40.80128       47.13965
C         58.90934       43.38107       46.96676
C         57.65714       43.16593       47.78221
N         57.49542       43.83173       48.94399
O         56.78952       42.39153       47.41076
H         57.22047       43.16459       45.03601
H         60.04692       42.68351       45.29252
H         58.90981       44.42696       46.59265
H         59.78644       43.27027       47.64169
H         58.21893       44.47956       49.28662
H         56.65706       43.67023       49.51514
N         58.45148       39.93895       46.07641
C         58.63134       38.59835       46.62865
C         57.94968       38.35866       47.97221
O         57.98818       37.22248       48.42267
H         57.70566       40.07495       45.38541
H         59.71267       38.34132       46.69164
H         58.17985       37.87690       45.91528
N         57.30869       39.34351       48.66924
C         56.60080       39.11658       49.93389
C         55.15200       39.56203       49.85720
O         54.77810       40.29325       48.95050
C         57.29428       39.86739       51.10026
C         58.61342       39.20413       51.50744
O         57.47635       41.22984       50.79269
H         57.32343       40.29475       48.29579
H         56.57353       38.03158       50.17297
H         56.65379       39.81481       52.00775
H         58.28002       41.31235       50.21336
H         59.06361       39.76265       52.35571
H         58.41256       38.16400       51.84369
H         59.33014       39.18082       50.66137
N         54.28269       39.17034       50.83668
C         52.91716       39.66212       50.92821
C         52.94139       40.92035       51.76637
O         53.46614       40.89913       52.87161
C         51.92552       38.61196       51.52106
C         52.01608       37.26389       50.76107
C         50.48754       39.18143       51.45998
C         51.04943       36.19507       51.28475
H         54.63460       38.57589       51.60292
H         52.54175       39.89752       49.91211
H         52.18719       38.42220       52.58637
H         53.04421       36.86112       50.88109
H         51.82432       37.41572       49.67709
H         50.41497       40.13219       52.01870
H         50.18456       39.36738       50.40593
H         49.75051       38.50173       51.93007
H         51.23635       35.23562       50.75931
H         51.19078       36.03888       52.37537
H         49.99402       36.47403       51.08631
N         52.34534       42.04867       51.30341
C         52.28559       43.29975       52.04422
C         50.94046       43.41528       52.73082
O         50.08900       42.56897       52.50793
C         52.53164       44.46166       51.06663
C         53.88659       44.33926       50.43256
O         53.99344       44.16563       49.22845
O         54.99032       44.41153       51.19939
H         51.83549       41.99247       50.41633
H         53.05254       43.30358       52.85003
H         52.46751       45.44108       51.58225
H         51.74810       44.43403       50.27521
N         50.69971       44.38844       53.65626
C         49.44973       44.42559       54.40825
C         48.25686       44.73059       53.50940
O         47.27128       44.02000       53.63784
C         49.48485       45.38458       55.61313
C         48.19811       45.22619       56.39175
C         47.96907       44.07486       57.16897
C         47.19124       46.19896       56.29211
C         46.75399       43.90826       57.84016
C         45.97256       46.02045       56.95196
C         45.75474       44.87836       57.72760
H         51.44768       45.06179       53.88152
H         49.30737       43.41493       54.85717
H         49.60157       46.42787       55.27736
H         50.34709       45.16141       56.27869
H         48.72913       43.30724       57.25392
H         47.33903       47.07820       55.67777
H         46.58296       43.02292       58.43959
H         45.19359       46.76447       56.85363
H         44.80939       44.74254       58.23635
N         48.22221       45.75651       52.60032
C         47.10678       45.97423       51.68619
C         46.82110       44.73218       50.84981
O         45.66707       44.36096       50.69516
C         47.57774       47.14178       50.80403
C         48.49262       47.89220       51.74754
C         49.26292       46.74203       52.38292
H         46.21272       46.28485       52.27187
H         48.22657       46.76978       49.97890
H         46.75244       47.74204       50.36273
H         49.12635       48.67275       51.27606
H         47.86475       48.37039       52.53664
H         50.01726       46.32625       51.67850
H         49.75281       47.11654       53.29554
N         47.85624       44.01897       50.31708
C         47.69321       42.79728       49.52332
C         47.09199       41.65499       50.33717
O         46.54786       40.73116       49.74924
C         49.05863       42.34038       48.97108
C         49.68815       43.41170       48.05847
C         51.08513       43.08140       47.63532
O         51.71396       43.89084       46.97578
O         51.67361       41.93244       48.00647
H         48.80922       44.36307       50.50570
H         47.02122       43.02387       48.66702
H         48.95401       41.39100       48.39985
H         49.71884       42.14548       49.83988
H         49.75575       44.38262       48.58442
H         49.05302       43.54875       47.15876
N         47.19518       41.63030       51.69190
C         46.64098       40.58785       52.52487
H         45.53992       40.54254       52.39348
H         47.09934       39.60997       52.27221
H         46.85565       40.81352       53.59369
H         47.70662       42.37630       52.15645
Ca        53.99116       42.11965       46.35009
O         55.35186       39.70261       45.92830
H         55.51077       39.06277       45.19121
H         54.98301       39.15379       46.66144
O         52.40942       39.36481       46.98841
H         52.03047       38.55897       46.56083
H         51.88241       39.45422       47.81730

Ca 1.0



