%chk=holoCaM.loop1.water2.frame406.chk
%nprocshared=20
%mem=10GB
%nosave
#b3lyp/svp scf=(tight,noincore,xqc) Test 
#IOP(5/87=12) Density=Current Pop=(MK,readradii) iop(6/33=2) iop(6/42=6)

holoCaM.loop1.water2.frame406 

   0  1 
C        118.06036       91.17977        9.92321
C        118.94445       92.16030       10.62633
O        120.14281       92.16616       10.37967
H        117.29352       91.72824        9.33704
H        118.65446       90.54554        9.23086
H        117.56083       90.52947       10.67037
N        118.41146       93.04488       11.51477
C        119.22658       94.04157       12.18972
C        120.24074       93.36344       13.10090
O        119.86104       92.71985       14.06908
C        118.34044       95.03358       12.96322
C        119.10221       96.18063       13.56282
O        118.42118       97.13610       14.21064
O        120.31425       96.27776       13.44974
H        117.39213       93.02910       11.67671
H        119.74227       94.62628       11.39879
H        117.78562       94.50424       13.76753
H        117.60045       95.46910       12.25623
N        121.56307       93.44682       12.80005
C        122.62732       92.80399       13.56076
C        122.80210       93.46686       14.91289
O        122.73150       92.78910       15.92812
C        123.96527       92.91025       12.78758
C        123.93743       92.15266       11.44964
C        125.19591       92.46306       10.62992
C        125.17656       91.74077        9.27692
N        126.34731       92.10283        8.47819
H        121.81783       93.96549       11.95152
H        122.39811       91.72212       13.68995
H        124.79568       92.49700       13.40208
H        124.18434       93.98224       12.59303
H        123.05876       92.46124       10.85244
H        123.85178       91.06130       11.64325
H        126.10160       92.16190       11.19992
H        125.23798       93.55989       10.44537
H        124.25753       92.01956        8.71502
H        125.16509       90.64108        9.44434
H        126.34427       93.13121        8.28451
H        127.22463       91.84219        8.98423
H        126.31379       91.59017        7.56769
N        123.10150       94.79409       14.98353
C        123.46369       95.47766       16.21968
C        122.33430       95.46759       17.23094
O        122.53532       95.00192       18.34365
C        123.87045       96.94184       15.92768
C        125.03390       97.02784       14.97815
O        126.21449       96.46484       15.29779
O        124.91397       97.61409       13.91410
H        123.13285       95.32878       14.10204
H        124.34961       94.96785       16.66265
H        124.16033       97.44335       16.87644
H        123.01033       97.49365       15.49108
N        121.13163       96.01797       16.91721
C        120.04068       96.19903       17.86142
C        119.69151       97.67269       18.01303
O        118.69447       97.97491       18.65266
H        120.98820       96.37170       15.96000
H        120.27335       95.77841       18.86297
H        119.15510       95.66279       17.45787
N        120.45606       98.64623       17.43167
C        120.14061      100.07557       17.42476
C        118.86962      100.43238       16.62170
O        118.55397      101.61237       16.55217
C        121.35943      100.88184       16.88383
C        121.75053      100.52763       15.47321
O        122.62443      101.15493       14.89901
O        121.13597       99.50755       14.85598
H        121.33651       98.36480       16.98512
H        119.98804      100.40918       18.47429
H        122.24075      100.71317       17.53984
H        121.11140      101.96427       16.92020
N        118.07142       99.49285       16.02815
C        116.80175       99.80709       15.38351
C        116.89036      100.26168       13.93483
O        115.83918      100.55805       13.38481
H        118.28421       98.50031       16.14993
H        116.25267      100.55457       15.99768
H        116.17629       98.88765       15.37392
N        118.06454      100.32165       13.23767
C        118.14981      100.76727       11.84034
C        118.75141       99.67985       10.88392
O        119.13392       98.52336       11.56134
C        119.00573      102.05362       11.77988
C        119.13271      102.62532       10.35920
O        118.47909      103.03380       12.64077
H        118.93421      100.06771       13.71893
H        117.13916      101.04306       11.46584
H        120.02716      101.80951       12.13804
H        117.56379      103.25524       12.32403
H        119.61856      101.89482        9.67901
H        118.13193      102.88469        9.95250
H        119.75902      103.54192       10.38011
N        117.80781       99.30745        9.82573
C        118.40717       98.44810        8.78284
C        119.21534       99.26723        7.77824
O        118.71590      100.23837        7.22779
C        117.29087       97.56912        8.14844
C        116.81299       96.55662        9.23456
C        117.79871       96.82518        6.89754
C        115.69369       95.61342        8.80060
H        117.36945      100.15057        9.38602
H        119.11016       97.71845        9.23888
H        116.44885       98.22121        7.82724
H        116.45047       97.11523       10.12426
H        117.67360       95.92658        9.55777
H        118.63657       96.15082        7.15521
H        116.98938       96.23195        6.42807
H        118.13648       97.54421        6.12267
H        115.42794       94.95483        9.65568
H        114.79697       96.19119        8.49842
H        116.01861       94.95385        7.97073
N        120.48018       98.86088        7.46572
C        121.38574       99.53338        6.54081
C        121.53895       98.71462        5.25827
O        120.83305       97.73019        5.09320
C        122.74862       99.77813        7.24516
C        122.59609      100.61192        8.52565
O        123.41890       98.56574        7.50261
H        120.82373       97.99609        7.89778
H        120.97283      100.52184        6.24068
H        123.40127      100.37520        6.57654
H        123.01350       98.14111        8.30171
H        123.59711      100.80688        8.96393
H        122.11626      101.58669        8.29613
H        121.97714      100.07841        9.27905
N        122.42460       99.08814        4.28785
C        122.54590       98.43366        2.98204
C        122.80031       96.93615        3.09434
O        122.02276       96.17958        2.53106
C        123.65037       99.12000        2.13655
C        123.76567       98.50725        0.73340
O        123.34506      100.48580        2.01036
H        123.02104       99.90828        4.46907
H        121.58143       98.57303        2.44191
H        124.62407       99.00137        2.66799
H        124.18423      100.94690        1.74730
H        122.80289       98.60801        0.18845
H        124.55761       99.03141        0.15800
H        124.04133       97.43334        0.78836
N        123.86982       96.43231        3.77292
C        124.11986       94.99337        3.88190
C        122.96841       94.29223        4.57766
O        122.46419       93.31175        4.04666
C        125.42673       94.68940        4.64611
C        126.67181       95.15012        3.87156
C        127.95764       94.71388        4.59153
C        129.24147       95.15548        3.86588
N        129.38017       94.54475        2.54124
H        124.51565       97.09290        4.23035
H        124.23226       94.55422        2.86421
H        125.50275       93.58412        4.76314
H        125.40403       95.14414        5.66104
H        126.66542       96.25470        3.75749
H        126.64162       94.68416        2.86445
H        127.96933       93.60695        4.70370
H        127.96531       95.16427        5.60796
H        130.10955       94.84769        4.49032
H        129.26248       96.26354        3.77327
H        129.33994       93.50225        2.61617
H        128.63651       94.88655        1.89267
H        130.30624       94.81627        2.13881
N        122.49782       94.74813        5.77171
C        121.43303       94.08065        6.52423
C        120.11204       94.00173        5.75993
O        119.23185       93.28062        6.20934
C        121.17018       94.82389        7.85003
C        122.38945       94.86604        8.78627
C        122.16940       95.73950        9.99264
O        121.12899       96.35783       10.15220
O        123.15200       95.86100       10.90284
H        122.93332       95.59960        6.15536
H        121.76791       93.04098        6.73875
H        120.32634       94.34924        8.39971
H        120.87830       95.85492        7.58454
H        123.28140       95.26916        8.26978
H        122.61495       93.83267        9.10978
N        119.88443       94.72805        4.62897
C        118.65248       94.68117        3.86980
H        118.18784       95.68953        3.86349
H        118.88226       94.38866        2.82343
H        117.92328       93.95599        4.28573
H        120.60242       95.37002        4.28631
Ca       121.01095       99.04357       12.68854
O        124.37271       98.57435       10.82602
H        124.93193       97.81744       11.13266
H        124.83853       98.90870       10.01952
O        122.96092      101.43852       11.59962
H        122.35776      101.36726       12.37862
H        122.52711      102.11366       11.02043

Ca 1.0



