%chk=holoCaM-CaMKII.loop2.water1.frame312.chk
%nprocshared=20
%mem=10GB
%nosave
#b3lyp/svp scf=(tight,noincore,xqc) Test 
#IOP(5/87=12) Density=Current Pop=(MK,readradii) iop(6/33=2) iop(6/42=6)

holoCaM-CaMKII.loop2.water1.frame312 

   -2  1 
C         64.95975       11.41083       30.87710
C         65.70071       10.13169       31.12800
O         66.78996       10.16657       31.68356
H         63.98407       11.38057       31.40780
H         65.53774       12.28321       31.24970
H         64.77854       11.53361       29.78939
N         65.14309        8.94484       30.76301
C         65.76912        7.66172       31.04564
C         67.08861        7.49709       30.29859
O         67.14334        7.78312       29.11086
C         64.81112        6.49361       30.73182
C         65.40766        5.23198       31.28146
O         65.71049        5.18396       32.59384
O         65.70133        4.31103       30.54364
H         64.21166        8.95841       30.31836
H         65.95197        7.62903       32.13731
H         64.62957        6.41958       29.63681
H         63.83877        6.65677       31.24481
N         68.18131        6.98928       30.94195
C         69.50097        6.84014       30.33573
C         69.93499        5.38186       30.18451
O         71.04545        5.16524       29.71862
C         70.51327        7.59973       31.20153
H         68.07521        6.69265       31.92077
H         69.51606        7.28658       29.31782
H         70.21965        8.66779       31.28215
H         70.55271        7.16378       32.22400
H         71.52941        7.55045       30.75529
N         69.12341        4.33361       30.51400
C         69.51121        2.92986       30.36138
C         68.63031        2.20403       29.35254
O         68.83716        1.01046       29.17161
C         69.36277        2.20444       31.70881
C         70.17798        2.79815       32.81620
O         71.39588        2.72428       32.79910
O         69.55269        3.39457       33.84874
H         68.18337        4.52405       30.88154
H         70.56410        2.83688       30.01648
H         69.63152        1.12900       31.61937
H         68.29758        2.24954       31.98440
N         67.62886        2.82413       28.65925
C         66.76978        2.08829       27.74728
C         65.87427        1.08187       28.45275
O         65.32135        0.23798       27.76219
H         67.47586        3.83781       28.74921
H         67.41826        1.56298       27.01190
H         66.11683        2.78468       27.17818
N         65.63179        1.13453       29.80044
C         64.78796        0.16794       30.50442
C         63.43090        0.74995       30.90575
O         62.64481        0.03107       31.50708
C         65.56155       -0.44392       31.69372
C         65.67093        0.45762       32.90047
N         65.25342        0.02971       34.11388
O         66.14793        1.57262       32.79365
H         66.03966        1.89979       30.34943
H         64.56457       -0.68109       29.82242
H         66.57954       -0.72667       31.34577
H         65.05030       -1.37931       32.00672
H         64.85535       -0.91152       34.24092
H         65.34922        0.63580       34.93886
N         63.04907        2.00652       30.52626
C         61.69661        2.51814       30.69912
C         61.30913        2.94446       32.10055
O         60.17442        3.37798       32.24777
H         63.68891        2.58398       29.96391
H         60.97474        1.76259       30.31862
H         61.58628        3.42489       30.06533
N         62.16176        2.89975       33.16452
C         61.79136        3.38350       34.49935
C         62.68449        4.55519       34.89542
O         63.52619        4.94850       34.10130
C         61.82231        2.21843       35.51526
C         60.81295        1.12854       35.13242
O         63.10664        1.66606       35.57600
H         63.11703        2.53435       33.03202
H         60.75336        3.78405       34.50572
H         61.53359        2.61454       36.51524
H         63.15701        1.14598       36.42056
H         59.78709        1.55279       35.08795
H         61.06393        0.68510       34.14549
H         60.82381        0.31951       35.89287
N         62.53086        5.19610       36.09151
C         63.28804        6.38992       36.46926
C         64.17173        6.08340       37.67173
O         63.67079        5.60211       38.67957
C         62.31991        7.58033       36.76225
C         61.39117        7.84230       35.54538
C         63.12645        8.84928       37.11283
C         60.37921        8.97174       35.76637
H         61.82405        4.84968       36.75814
H         63.94213        6.71846       35.63193
H         61.68312        7.31711       37.63629
H         60.80391        6.92252       35.33778
H         61.99815        8.07766       34.64388
H         62.46416        9.69206       37.39006
H         63.76823        8.67366       37.99510
H         63.76400        9.15792       36.25642
H         60.88167        9.95392       35.87832
H         59.71072        9.04679       34.88321
H         59.75972        8.76808       36.66531
N         65.49608        6.41594       37.64733
C         66.40710        6.26485       38.77671
C         66.61195        7.60619       39.44812
O         66.05302        8.59898       39.00570
C         67.77221        5.71928       38.30186
C         67.67910        4.33689       37.74141
O         68.02649        4.11541       36.59278
O         67.25739        3.32337       38.52152
H         65.85645        6.90904       36.82265
H         65.97150        5.58932       39.54599
H         68.48630        5.66837       39.14919
H         68.19807        6.41163       37.54121
N         67.37442        7.70113       40.56953
C         67.53888        8.94477       41.30472
C         68.23545       10.01086       40.45427
O         67.67023       11.08978       40.34825
C         68.21790        8.67193       42.67202
C         68.10291        9.80387       43.66558
C         66.83629       10.25547       44.08402
C         69.25351       10.37861       44.23198
C         66.72546       11.26220       45.04601
C         69.13691       11.38373       45.19848
C         67.87450       11.82441       45.60515
H         67.80210        6.84202       40.94892
H         66.51587        9.30625       41.54879
H         69.27301        8.37494       42.54980
H         67.69873        7.80980       43.14522
H         65.93097        9.82059       43.68068
H         70.23940       10.03985       43.93945
H         65.74709       11.59814       45.36536
H         70.02564       11.81530       45.63981
H         67.78556       12.59665       46.35816
N         69.42212        9.81035       39.78225
C         70.08230       10.84916       38.98868
C         69.26489       11.35974       37.81203
O         69.63315       12.36700       37.22345
C         71.32765       10.14579       38.42500
C         71.60739        9.09331       39.47326
C         70.20155        8.59049       39.77435
H         70.34471       11.67225       39.68906
H         71.04933        9.57682       37.50478
H         72.17054       10.82225       38.16876
H         72.31953        8.30060       39.15935
H         72.00158        9.60376       40.38057
H         69.82913        7.94390       38.94796
H         70.21235        8.02248       40.71560
N         68.21381       10.63613       37.34244
C         67.48139       10.95540       36.12698
C         66.38438       11.94079       36.45636
O         66.34487       13.00673       35.85873
C         66.93988        9.65033       35.50162
C         68.11468        8.71126       35.14245
C         67.68691        7.37328       34.62848
O         68.53748        6.53964       34.36437
O         66.38645        7.06487       34.48169
H         67.99413        9.74334       37.80349
H         68.16449       11.39763       35.36526
H         66.35670        9.87755       34.58206
H         66.26666        9.14797       36.22729
H         68.73251        8.51265       36.04236
H         68.75739        9.19897       34.37753
N         65.48064       11.65976       37.43693
C         64.43517       12.56946       37.85549
H         63.44942       12.07199       37.74953
H         64.59018       12.83164       38.92387
H         64.42649       13.50739       37.26268
H         65.54982       10.76647       37.94044
Ca        67.40098        4.01552       33.51571
O         65.43287        3.02789       36.14667
H         64.80227        3.47488       36.76383
H         65.74132        2.23380       36.65140

Ca 1.0



