%chk=holoCaM.loop1.water2.frame442.chk
%nprocshared=20
%mem=10GB
%nosave
#b3lyp/svp scf=(tight,noincore,xqc) Test 
#IOP(5/87=12) Density=Current Pop=(MK,readradii) iop(6/33=2) iop(6/42=6)

holoCaM.loop1.water2.frame442 

   0  1 
C         -0.83098      104.51124       59.09428
C         -1.14407      105.74618       59.88744
O         -1.00755      105.70760       61.10112
H          0.22789      104.22147       59.25922
H         -1.48998      103.68152       59.42843
H         -0.99175      104.67273       58.00816
N         -1.58977      106.87794       59.26594
C         -1.94306      108.09744       59.98290
C         -3.43223      108.34864       59.82421
O         -3.92956      108.25133       58.71273
C         -1.12539      109.30350       59.47201
C         -1.30376      110.41684       60.46251
O         -0.88294      110.17192       61.71311
O         -1.89584      111.44514       60.18462
H         -1.70898      106.86851       58.24188
H         -1.71672      107.96568       61.06405
H         -1.44662      109.58852       58.44704
H         -0.04211      109.05278       59.44994
N         -4.20631      108.65607       60.90731
C         -5.66782      108.67901       60.85402
C         -6.27667      110.05822       61.05801
O         -7.49183      110.15862       60.91525
C         -6.21595      107.71261       61.92965
C         -5.61403      106.29594       61.87954
C         -5.92507      105.55811       60.57357
C         -5.31988      104.14938       60.58745
N         -5.62171      103.44325       59.34362
H         -3.74952      108.81375       61.81370
H         -6.01076      108.34563       59.85245
H         -7.32323      107.64747       61.85146
H         -5.97125      108.13209       62.93112
H         -6.03502      105.71545       62.72944
H         -4.51240      106.35045       62.02544
H         -5.49858      106.11281       59.71259
H         -7.02742      105.48806       60.44853
H         -5.73253      103.57397       61.44603
H         -4.21534      104.22049       60.71004
H         -6.65706      103.35189       59.22595
H         -5.21822      103.96177       58.52965
H         -5.19867      102.48805       59.38066
N         -5.54430      111.15779       61.39213
C         -6.13117      112.48779       61.56584
C         -5.51078      113.52838       60.63119
O         -5.87171      114.69067       60.72751
C         -6.09082      112.90581       63.05442
C         -4.73150      113.04759       63.67865
O         -4.64027      113.40084       64.97460
O         -3.71425      112.84908       63.03993
H         -4.53014      111.05117       61.54793
H         -7.21523      112.47229       61.31357
H         -6.65468      112.14513       63.63797
H         -6.62318      113.87517       63.16769
N         -4.62826      113.17054       59.64925
C         -4.09935      114.09907       58.66113
C         -3.01560      115.03208       59.16072
O         -2.47693      115.75458       58.33330
H         -4.39004      112.17980       59.51660
H         -4.93010      114.67198       58.19441
H         -3.62076      113.49635       57.85844
N         -2.60487      115.07349       60.46193
C         -1.49242      115.92003       60.89419
C         -0.13743      115.43838       60.35666
O          0.84485      116.13965       60.55334
C         -1.47193      116.05504       62.43524
C         -1.25193      114.77508       63.19797
O         -1.05403      113.71538       62.62496
O         -1.27966      114.80414       64.54320
H         -3.09942      114.50796       61.16256
H         -1.67756      116.94637       60.50410
H         -2.44988      116.47776       62.75390
H         -0.67993      116.77637       62.73218
N         -0.00356      114.25790       59.67823
C          1.25213      113.77002       59.12613
C          2.28607      113.53185       60.19961
O          3.37415      114.07442       60.10383
H         -0.82548      113.66043       59.52831
H          1.63177      114.48880       58.36811
H          1.06263      112.80089       58.61401
N          2.00590      112.69227       61.23244
C          2.88284      112.40445       62.37392
C          2.29660      111.21452       63.13073
O          1.12922      111.25653       63.48681
C          3.03821      113.61628       63.34765
C          3.99839      114.71241       62.87996
O          1.80034      114.21493       63.62169
H          1.09170      112.21438       61.19037
H          3.89079      112.09511       62.02041
H          3.50489      113.23768       64.28781
H          1.29656      113.59475       64.19940
H          3.59304      115.29490       62.03515
H          4.14885      115.44259       63.70324
H          4.98733      114.27807       62.61832
N          3.04917      110.10672       63.39678
C          2.48202      108.87205       63.93535
C          2.87268      108.68889       65.40062
O          4.04142      108.51862       65.71581
C          2.88730      107.68628       63.00747
C          2.23339      107.89060       61.60999
C          2.48480      106.33363       63.60666
C          2.60239      106.83115       60.57087
H          4.05554      110.11834       63.17029
H          1.37134      108.92725       63.91401
H          3.99585      107.68033       62.90537
H          2.54792      108.87282       61.19718
H          1.12558      107.90308       61.71640
H          1.38767      106.27716       63.69688
H          2.84203      105.49778       62.97357
H          2.95007      106.18466       64.60274
H          2.11375      107.08378       59.60578
H          3.70165      106.80549       60.41997
H          2.24061      105.82574       60.86629
N          1.89043      108.74136       66.35174
C          2.09104      108.59973       67.79551
C          2.30517      107.14102       68.19534
O          2.33236      106.27189       67.33526
C          0.83972      109.14304       68.56195
C          0.55858      110.62490       68.27105
O         -0.29570      108.34283       68.32635
H          0.93749      108.94808       66.02407
H          2.95837      109.22054       68.11169
H          1.03076      109.11055       69.65302
H         -0.75170      108.66522       67.50996
H         -0.30356      110.96947       68.88060
H          1.44585      111.23857       68.53418
H          0.31162      110.78576       67.20256
N          2.38888      106.80209       69.51566
C          2.35342      105.42974       70.02005
C          1.03524      104.75387       69.64892
O          1.07006      103.63275       69.16609
C          2.53099      105.38691       71.56014
C          3.91549      105.88991       71.98643
O          1.53153      106.14608       72.19260
H          2.41644      107.56325       70.20876
H          3.19428      104.84293       69.58447
H          2.44863      104.31828       71.87325
H          1.45626      105.80797       73.12305
H          4.70834      105.27672       71.50736
H          4.06524      106.95284       71.70681
H          4.02382      105.79955       73.08789
N         -0.16588      105.38365       69.83698
C         -1.45411      104.77384       69.48099
C         -1.57842      104.46415       67.99447
O         -2.53698      103.79552       67.62412
C         -2.63175      105.72141       69.82979
C         -2.80581      106.05199       71.31843
C         -3.22849      104.82877       72.14059
C         -3.51292      105.22167       73.59457
N         -3.95313      104.06285       74.36954
H         -0.15845      106.33125       70.23917
H         -1.54771      103.81529       70.03297
H         -3.59210      105.28394       69.47429
H         -2.48027      106.67554       69.27677
H         -3.61714      106.81023       71.38994
H         -1.88176      106.50347       71.73596
H         -2.42922      104.05903       72.12125
H         -4.15464      104.39801       71.69928
H         -4.30917      105.99941       73.62041
H         -2.59167      105.64590       74.05192
H         -4.13851      104.36060       75.35431
H         -4.83498      103.67375       73.96265
H         -3.21002      103.32703       74.36987
N         -0.70652      104.96295       67.07814
C         -0.84723      104.78594       65.64266
C          0.35700      104.07247       65.03135
O          0.34403      103.84501       63.83060
C         -1.06493      106.17988       65.01807
C         -2.35563      106.83384       65.54919
C         -2.54721      108.19650       64.95922
O         -3.49385      108.40968       64.22220
O         -1.67278      109.18781       65.21648
H          0.05690      105.56945       67.39378
H         -1.73234      104.15658       65.40135
H         -1.14218      106.08797       63.91220
H         -0.19546      106.82906       65.26143
H         -2.33372      106.93591       66.65328
H         -3.21427      106.18388       65.27092
N          1.42118      103.66267       65.78353
C          2.55220      102.95918       65.21737
H          3.28820      102.72495       66.01733
H          2.21671      102.00666       64.75669
H          3.05486      103.58579       64.45403
H          1.44520      103.83786       66.79137
Ca        -1.62830      110.84434       63.70666
O          0.89233      113.24907       66.57564
H          0.78282      113.63482       67.47923
H         -0.02920      113.17845       66.22023
O         -2.55116      111.68605       66.66228
H         -3.50568      111.56719       66.89663
H         -2.19346      112.28052       67.36832

Ca 1.0



