%chk=holoCaM.loop2.water3.frame490.chk
%nprocshared=20
%mem=10GB
%nosave
#b3lyp/svp scf=(tight,noincore,xqc) Test 
#IOP(5/87=12) Density=Current Pop=(MK,readradii) iop(6/33=2) iop(6/42=6)

holoCaM.loop2.water3.frame490 

   -2  1 
C         -0.95287       62.28771       36.25928
C         -1.67784       62.01652       37.53707
O         -1.08147       61.47134       38.45626
H          0.09837       61.93447       36.32726
H         -1.45997       61.74466       35.43475
H         -0.95863       63.37643       36.04800
N         -2.98702       62.36971       37.66893
C         -3.73456       62.07925       38.87974
C         -3.83102       60.57283       39.04772
O         -4.44761       59.91504       38.22014
C         -5.14034       62.70460       38.82188
C         -5.91573       62.51497       40.09530
O         -5.37425       61.92017       41.17594
O         -7.05882       62.92252       40.15784
H         -3.45299       62.85716       36.88756
H         -3.19374       62.54642       39.73058
H         -5.71070       62.25514       37.97933
H         -5.05440       63.79839       38.63740
N         -3.20924       59.95957       40.08960
C         -3.24639       58.51929       40.30162
C         -4.66243       58.06160       40.57809
O         -5.14195       57.16221       39.90258
C         -2.33066       58.13358       41.46714
H         -2.66869       60.54247       40.74505
H         -2.85008       58.00289       39.39850
H         -1.29072       58.45570       41.24256
H         -2.65541       58.61399       42.41392
H         -2.33094       57.03057       41.59913
N         -5.39800       58.66973       41.55078
C         -6.77361       58.30570       41.88160
C         -7.64998       58.35674       40.64299
O         -8.21321       57.33367       40.27806
C         -7.29796       59.22699       43.01836
C         -6.49167       58.96206       44.26647
O         -5.66228       59.86959       44.82505
O         -6.50675       57.83791       44.74130
H         -4.95565       59.44487       42.06823
H         -6.78937       57.25419       42.24962
H         -8.36480       59.00283       43.23777
H         -7.21883       60.29200       42.71326
N         -7.77439       59.50353       39.92631
C         -8.52657       59.61239       38.68704
C         -9.69150       60.56771       38.80350
O        -10.35550       60.78898       37.80040
H         -7.29401       60.34180       40.26619
H         -8.93197       58.62795       38.36487
H         -7.83575       59.96899       37.89418
N        -10.04617       61.12745       39.99656
C        -11.25292       61.93086       40.15485
C        -11.12940       63.33745       39.57251
O        -12.12913       64.04196       39.57635
C        -11.65836       61.98479       41.64415
C        -11.78475       60.59386       42.23239
N        -12.65152       59.68984       41.71560
O        -11.08012       60.27764       43.17953
H         -9.51511       60.87938       40.84297
H        -12.07778       61.41413       39.61695
H        -12.63285       62.50736       41.75050
H        -10.89285       62.55557       42.21453
H        -13.25367       59.92608       40.91438
H        -12.71482       58.74053       42.11298
N         -9.95838       63.82112       39.05861
C         -9.83524       65.12752       38.42663
C         -8.91832       66.09695       39.15332
O         -8.73745       67.18381       38.62205
H         -9.11903       63.23439       39.06979
H        -10.82346       65.62627       38.33379
H         -9.44881       64.97046       37.39625
N         -8.34731       65.82844       40.36839
C         -7.53024       66.80912       41.09611
C         -6.12898       66.28712       41.41096
O         -5.84652       65.12123       41.19996
C         -8.27563       67.27931       42.37177
C         -9.49351       68.15360       42.02835
O         -8.65382       66.18830       43.17563
H         -8.53717       64.92362       40.82148
H         -7.35870       67.70714       40.46336
H         -7.60373       67.92861       42.97234
H         -9.46503       65.77232       42.77923
H        -10.23075       67.59770       41.41164
H         -9.99072       68.49114       42.96248
H         -9.16452       69.05374       41.46567
N         -5.16646       67.15504       41.84269
C         -3.75368       66.81668       42.03317
C         -3.28676       67.18372       43.44018
O         -3.53889       68.28799       43.90205
C         -2.91447       67.49483       40.89369
C         -3.03934       66.61087       39.61517
C         -1.43243       67.69376       41.27015
C         -2.31271       67.13758       38.37740
H         -5.42810       68.14645       41.95929
H         -3.58522       65.72644       41.93535
H         -3.31674       68.51514       40.70488
H         -4.11136       66.49421       39.35075
H         -2.62862       65.59747       39.83183
H         -1.34627       68.35537       42.15704
H         -0.93805       66.72776       41.47831
H         -0.88146       68.21969       40.46516
H         -2.47553       66.43040       37.53549
H         -2.70583       68.13408       38.09220
H         -1.21706       67.19506       38.53940
N         -2.49619       66.30329       44.12954
C         -1.90167       66.55377       45.44309
C         -0.45869       67.00551       45.27643
O         -0.02644       67.13076       44.14262
C         -1.92278       65.25121       46.27118
C         -3.26755       64.58284       46.26560
O         -3.34799       63.30636       45.83998
O         -4.25894       65.16229       46.67507
H         -2.22001       65.43124       43.65752
H         -2.46911       67.34939       45.97345
H         -1.60267       65.45871       47.31366
H         -1.19702       64.53022       45.82707
N          0.35677       67.28797       46.33737
C          1.74324       67.70273       46.13373
C          2.58593       66.57283       45.52058
O          3.17034       66.82928       44.48013
C          2.40966       68.28161       47.40473
C          3.76082       68.86135       47.04547
C          3.83964       70.01893       46.24887
C          4.94801       68.23922       47.46815
C          5.08120       70.54091       45.87919
C          6.18962       68.76009       47.08628
C          6.25578       69.90939       46.29306
H         -0.02178       67.23855       47.29583
H          1.71780       68.55710       45.41915
H          2.52173       67.51968       48.18793
H          1.78397       69.08757       47.84580
H          2.93870       70.51818       45.91429
H          4.91376       67.34067       48.07141
H          5.13111       71.43189       45.26633
H          7.10177       68.26932       47.39951
H          7.21648       70.31009       45.99664
N          2.71201       65.31233       46.06839
C          3.48169       64.22727       45.45511
C          3.19764       64.04151       43.97881
O          4.13090       63.98696       43.18947
C          3.02534       62.97863       46.22450
C          2.79931       63.54008       47.60082
C          2.07146       64.84532       47.28596
H          4.56554       64.41656       45.62604
H          2.02598       62.64111       45.86550
H          3.72581       62.11845       46.16260
H          2.26740       62.87249       48.31127
H          3.80215       63.78361       48.02389
H          0.99082       64.68927       47.08543
H          2.20923       65.48943       48.16633
N          1.91143       63.97389       43.54020
C          1.52720       63.83330       42.13887
C          2.13673       64.96111       41.32067
O          2.79366       64.68970       40.32587
C         -0.01415       63.81473       42.01350
C         -0.62607       62.57854       42.71345
C         -2.12687       62.52092       42.65620
O         -2.77662       63.39157       42.10347
O         -2.76615       61.48630       43.23334
H          1.16812       64.07566       44.24812
H          1.90441       62.86708       41.73535
H         -0.29856       63.78578       40.93835
H         -0.42190       64.74128       42.46180
H         -0.34966       62.56097       43.78667
H         -0.22626       61.65991       42.23376
N          2.02103       66.25052       41.73143
C          2.65750       67.35716       41.05402
H          3.75467       67.18754       41.00116
H          2.24112       67.47102       40.03307
H          2.48113       68.29578       41.62408
H          1.50502       66.44830       42.58951
Ca        -5.09209       62.04948       45.10556
O         -7.68306       62.59899       46.52279
H         -7.65473       63.53188       46.19370
H         -7.83731       62.05432       45.71046
O         -8.18119       62.95802       43.19467
H         -7.64258       63.74501       42.93273
H         -8.36498       62.49106       42.34270
O         -6.12797       65.41451       44.53179
H         -5.61219       66.22107       44.78025
H         -6.99281       65.53141       44.99725

Ca 1.0



