%chk=holoCaM-CaMKII.loop2.water2.frame348.chk
%nprocshared=20
%mem=10GB
%nosave
#b3lyp/svp scf=(tight,noincore,xqc) Test 
#IOP(5/87=12) Density=Current Pop=(MK,readradii) iop(6/33=2) iop(6/42=6)

holoCaM-CaMKII.loop2.water2.frame348 

   -2  1 
C         34.14366       65.82406       54.30473
C         34.96558       66.62224       55.27371
O         36.09813       66.96545       54.96755
H         33.22460       66.39505       54.04938
H         34.70768       65.62761       53.36871
H         33.85041       64.85741       54.76424
N         34.42631       66.98371       56.46820
C         35.10641       67.84199       57.42893
C         36.35371       67.18889       57.99856
O         36.25514       66.12547       58.59483
C         34.12539       68.23151       58.55303
C         34.72122       69.22636       59.49930
O         35.20983       70.25632       59.06915
O         34.69946       68.99923       60.82566
H         33.45907       66.68289       56.66866
H         35.38414       68.78214       56.90316
H         33.77979       67.33584       59.11382
H         33.23867       68.70728       58.08674
N         37.56327       67.80831       57.87032
C         38.80964       67.28785       58.41687
C         39.44156       68.23314       59.44094
O         40.46530       67.85546       59.99477
C         39.78779       67.03720       57.26069
H         37.60271       68.69830       57.35778
H         38.63080       66.31893       58.93100
H         40.74157       66.60641       57.63384
H         39.34494       66.32097       56.53576
H         40.01236       67.98602       56.72555
N         38.93500       69.47572       59.72426
C         39.60572       70.41566       60.62694
C         38.67197       71.17141       61.57948
O         39.18391       71.92154       62.39971
C         40.47900       71.39720       59.80951
C         39.76836       72.20897       58.71967
O         38.63241       72.85295       59.21406
O         39.36570       71.39194       57.66039
H         38.12113       69.81374       59.19785
H         40.30776       69.86087       61.28748
H         41.28905       70.82318       59.31022
H         40.96928       72.10668       60.50917
N         37.31661       71.04414       61.54885
C         36.42395       71.75134       62.45451
C         36.49834       73.25704       62.31028
O         36.74918       73.92675       63.30252
H         36.88317       70.40400       60.87889
H         36.65085       71.45692       63.50345
H         35.37674       71.44626       62.23961
N         36.25273       73.85979       61.11049
C         36.18439       75.31249       60.93639
C         34.80807       75.75700       60.42564
O         34.64108       76.93363       60.13550
C         37.34068       75.82422       60.04620
C         37.32155       75.41687       58.59719
N         38.28030       75.88378       57.76750
O         36.45288       74.68217       58.15908
H         36.07747       73.25928       60.29073
H         36.33872       75.82547       61.91131
H         38.30545       75.49791       60.49366
H         37.32126       76.93580       60.06823
H         39.02484       76.50484       58.11601
H         38.27242       75.63502       56.77179
N         33.75689       74.88526       60.35455
C         32.40492       75.26297       59.96374
C         32.18188       75.46710       58.47276
O         31.04983       75.75791       58.11312
H         33.87872       73.92434       60.69813
H         32.09818       76.16797       60.53237
H         31.72043       74.43904       60.26012
N         33.17438       75.33289       57.54677
C         32.98018       75.52943       56.10650
C         33.45228       74.31602       55.31043
O         33.96344       73.37484       55.90164
C         33.76310       76.79342       55.66462
C         33.18439       78.04993       56.31849
O         35.12264       76.68964       56.00800
H         34.12189       75.11301       57.86973
H         31.90541       75.68157       55.86393
H         33.66595       76.95122       54.56737
H         35.53214       76.02752       55.39263
H         33.73642       78.94611       55.96538
H         32.11433       78.16526       56.04090
H         33.26652       77.99863       57.42462
N         33.36535       74.30526       53.94292
C         33.95958       73.26047       53.11287
C         35.14183       73.88828       52.39755
O         34.94726       74.77493       51.57586
C         32.94849       72.65129       52.09065
C         31.67883       72.11532       52.79760
C         33.63617       71.53578       51.27165
C         30.62883       71.55898       51.82779
H         32.94306       75.11454       53.46278
H         34.33145       72.43518       53.75731
H         32.63202       73.45611       51.38975
H         31.20174       72.95074       53.35295
H         31.94747       71.32131       53.52491
H         34.54253       71.91510       50.76021
H         33.92453       70.69268       51.93414
H         32.97853       71.15033       50.46817
H         30.99802       70.65514       51.30131
H         29.72204       71.25883       52.39272
H         30.34363       72.32868       51.07929
N         36.41015       73.50706       52.70893
C         37.59382       74.10627       52.09646
C         37.75053       73.61699       50.66109
O         36.94754       72.80611       50.22269
C         38.85770       73.73265       52.90195
C         38.82129       74.19979       54.33110
O         37.90348       73.71712       55.19018
O         39.65861       74.99283       54.73119
H         36.53242       72.79139       53.43888
H         37.49840       75.21510       52.11833
H         39.73250       74.22100       52.42573
H         39.00155       72.63004       52.89515
N         38.77706       74.04827       49.86632
C         39.01610       73.47487       48.54489
C         39.41856       72.00231       48.66656
O         38.80990       71.20421       47.96985
C         40.03569       74.27898       47.70694
C         40.13750       73.70288       46.30884
C         39.02492       73.72606       45.44504
C         41.33590       73.12073       45.86131
C         39.11022       73.17263       44.16478
C         41.41503       72.56514       44.57957
C         40.30349       72.59042       43.73287
H         39.40966       74.78474       50.21275
H         38.06213       73.54382       47.97591
H         41.02748       74.28763       48.18584
H         39.70927       75.33850       47.62958
H         38.08959       74.17117       45.75980
H         42.20415       73.08418       46.50695
H         38.24917       73.19290       43.50871
H         42.33769       72.11069       44.24329
H         40.36588       72.15846       42.74235
N         40.38366       71.53201       49.53133
C         40.69029       70.11393       49.71728
C         39.51352       69.21773       50.10244
O         39.71963       68.01492       50.18399
C         41.67972       70.10813       50.89371
C         42.40073       71.41556       50.70765
C         41.24872       72.34978       50.35993
H         41.15244       69.75423       48.77161
H         41.11373       70.21104       51.85169
H         42.32187       69.20511       50.96559
H         43.01389       71.74906       51.57263
H         43.05880       71.31075       49.81542
H         40.69540       72.64455       51.26238
H         41.68701       73.22588       49.85754
N         38.27685       69.72105       50.39518
C         37.14225       68.90759       50.81903
C         35.98542       68.97247       49.82858
O         35.07410       68.16740       49.96112
C         36.65754       69.40622       52.19307
C         37.78136       69.39124       53.23832
C         37.37823       70.00692       54.54404
O         38.30040       70.11931       55.51172
O         36.25152       70.43729       54.73228
H         38.13405       70.73250       50.38083
H         37.44896       67.84135       50.89354
H         35.80263       68.79003       52.55022
H         36.31229       70.45743       52.07292
H         38.64129       69.98737       52.86858
H         38.11811       68.34728       53.41198
N         35.93105       69.90392       48.83189
C         34.86498       69.98538       47.85669
H         34.34400       70.96016       47.96301
H         35.30401       69.92659       46.83813
H         34.12371       69.16816       47.96775
H         36.65726       70.61903       48.75258
Ca        37.16249       71.91891       57.74661
O         33.51602       70.46907       55.96929
H         32.69264       69.94998       56.14502
H         33.62020       70.43587       54.98671
O         33.62411       72.38250       58.62389
H         33.40060       71.96910       59.49523
H         32.86979       72.13257       58.03613

Ca 1.0



