%chk=holoCaM.loop1.water1.frame445.chk
%nprocshared=20
%mem=10GB
%nosave
#b3lyp/svp scf=(tight,noincore,xqc) Test 
#IOP(5/87=12) Density=Current Pop=(MK,readradii) iop(6/33=2) iop(6/42=6)

holoCaM.loop1.water1.frame445 

   0  1 
C          1.66376      104.95219       41.81840
C          0.97978      106.22146       42.22301
O          0.10392      106.18195       43.07411
H          2.75050      105.03796       42.03088
H          1.25696      104.08771       42.38491
H          1.51496      104.77605       40.73296
N          1.32582      107.39428       41.62533
C          0.76052      108.68853       41.98060
C         -0.08503      109.17596       40.82092
O          0.41355      109.22241       39.70422
C          1.91376      109.64776       42.32315
C          1.41492      110.92783       42.91271
O          0.70644      111.67207       42.26271
O          1.74386      111.25704       44.17344
H          2.03148      107.36854       40.87197
H          0.11824      108.59609       42.88521
H          2.53682      109.85633       41.42649
H          2.56551      109.16406       43.07935
N         -1.39362      109.51851       41.00817
C         -2.31837      109.73721       39.90165
C         -2.54281      111.21283       39.57687
O         -3.19297      111.47246       38.57362
C         -3.67524      109.05642       40.21154
C         -3.66315      107.60649       40.76203
C         -3.24657      106.46239       39.82227
C         -1.73993      106.37022       39.54903
N         -1.42048      105.15693       38.79740
H         -1.77540      109.51731       41.96305
H         -1.89217      109.30352       38.97751
H         -4.33932      109.11014       39.32205
H         -4.15109      109.66383       41.01401
H         -4.72042      107.39460       41.03783
H         -3.07377      107.54054       41.70169
H         -3.82418      106.51252       38.87483
H         -3.52741      105.51985       40.34409
H         -1.19918      106.34238       40.51815
H         -1.38885      107.23988       38.97114
H         -0.38897      105.12040       38.62979
H         -1.70048      104.30955       39.34344
H         -1.91575      105.16354       37.87640
N         -2.05806      112.22914       40.35392
C         -2.24188      113.64839       40.02773
C         -0.91175      114.40425       39.89236
O         -0.94231      115.60506       39.66175
C         -3.18656      114.30194       41.05670
C         -2.66707      114.28392       42.46046
O         -3.36559      113.65873       43.42568
O         -1.63346      114.86513       42.74021
H         -1.56396      111.99878       41.22654
H         -2.75633      113.75847       39.04856
H         -4.15875      113.76204       41.02899
H         -3.38098      115.35709       40.76691
N          0.28915      113.76506       39.97325
C          1.58404      114.40509       39.78870
C          1.97604      115.37252       40.88930
O          2.41319      116.47307       40.58633
H          0.30695      112.74647       40.10659
H          1.63858      114.88913       38.78938
H          2.35449      113.60322       39.80851
N          1.91124      114.98577       42.19260
C          2.47706      115.73653       43.32142
C          3.43605      114.86717       44.15123
O          3.98306      115.37293       45.12158
C          1.36265      116.34102       44.21488
C          0.41504      115.33418       44.80415
O          0.57517      114.03311       44.51887
O         -0.53854      115.70570       45.46717
H          1.45709      114.08422       42.37489
H          3.06458      116.60230       42.94311
H          0.76780      117.04403       43.59162
H          1.82553      116.92885       45.03793
N          3.70558      113.56411       43.82953
C          4.63085      112.71472       44.56708
C          4.17161      112.27254       45.95137
O          4.92251      111.53413       46.57231
H          3.29942      113.14837       42.98192
H          5.61558      113.22364       44.63523
H          4.77747      111.77942       43.98151
N          2.97222      112.63529       46.49667
C          2.50218      112.17782       47.80591
C          1.22182      111.36903       47.64784
O          0.23831      111.86948       47.12221
C          2.31291      113.36923       48.76781
C          3.66959      113.95515       49.16736
O          1.53023      114.37866       48.18171
H          2.34911      113.25260       45.96660
H          3.25296      111.50814       48.27923
H          1.84300      113.01247       49.71500
H          0.58010      114.12464       48.30574
H          4.22117      114.32817       48.27914
H          3.52582      114.79103       49.88309
H          4.28516      113.17554       49.66900
N          1.19802      110.07079       48.06163
C          0.09071      109.15395       47.81421
C         -0.99969      109.33346       48.86945
O         -0.69548      109.22877       50.04944
C          0.60913      107.67431       47.81077
C          1.88757      107.45167       46.94635
C         -0.49885      106.70799       47.35417
C          1.76776      107.89893       45.49455
H          2.05454      109.69154       48.48765
H         -0.30968      109.34046       46.79139
H          0.89500      107.39098       48.84772
H          2.15728      106.37331       46.96905
H          2.75261      107.98950       47.38236
H         -1.38007      106.76925       48.02067
H         -0.82748      106.93785       46.32106
H         -0.12806      105.66180       47.37851
H          1.57590      108.98773       45.43424
H          2.71966      107.68259       44.96508
H          0.95375      107.35942       44.98895
N         -2.30389      109.52363       48.51116
C         -3.41651      109.59039       49.46693
C         -4.21533      108.28659       49.43411
O         -3.78273      107.33950       48.79435
C         -4.32363      110.82545       49.19025
C         -3.54684      112.14568       49.17275
O         -5.07687      110.66647       48.01599
H         -2.52615      109.55329       47.50987
H         -3.03109      109.69783       50.50396
H         -5.05442      110.92260       50.01877
H         -4.45033      110.68925       47.25691
H         -3.02620      112.29497       50.14179
H         -2.79739      112.15003       48.35469
H         -4.25162      112.99064       49.01531
N         -5.38255      108.15808       50.12960
C         -6.18533      106.93514       50.17079
C         -6.63727      106.49804       48.78206
O         -6.41597      105.34556       48.44643
C         -7.40008      107.12431       51.11257
C         -8.22525      105.83759       51.25214
O         -6.92973      107.49524       52.38403
H         -5.71504      108.96566       50.67457
H         -5.56211      106.12190       50.60916
H         -8.04733      107.93215       50.69593
H         -7.66264      107.99213       52.83239
H         -8.64699      105.52543       50.27397
H         -7.59374      105.01564       51.65320
H         -9.07097      106.00777       51.95109
N         -7.30732      107.33437       47.93557
C         -7.76641      106.90161       46.60852
C         -6.62920      106.68263       45.60150
O         -6.91753      106.26445       44.48802
C         -8.83019      107.87068       46.04387
C        -10.07018      107.88893       46.95732
C        -11.25453      108.63580       46.33753
C        -12.47035      108.55405       47.27474
N        -13.64860      109.17630       46.67499
H         -7.52725      108.28718       48.26227
H         -8.28219      105.92170       46.72245
H         -9.14939      107.49038       45.04789
H         -8.41777      108.89523       45.91096
H         -9.81482      108.34275       47.93867
H        -10.39514      106.83880       47.12870
H        -11.51346      108.15623       45.36778
H        -10.98708      109.69882       46.15257
H        -12.23159      109.05907       48.23736
H        -12.70217      107.48638       47.49014
H        -14.44926      109.10028       47.34364
H        -13.46364      110.18565       46.47614
H        -13.90279      108.67905       45.79039
N         -5.32209      106.89053       45.92623
C         -4.18842      106.62175       45.04315
C         -3.35970      105.44033       45.55003
O         -2.39535      105.07943       44.88996
C         -3.29954      107.87607       44.99165
C         -4.02610      109.08837       44.39935
C         -3.23331      110.34582       44.59846
O         -1.94670      110.41553       44.23457
O         -3.75709      111.32597       45.09900
H         -5.09933      107.23870       46.86062
H         -4.53226      106.35747       44.01887
H         -2.37935      107.68788       44.39334
H         -2.98983      108.08939       46.02935
H         -5.01984      109.23291       44.87412
H         -4.18026      108.90944       43.31829
N         -3.67189      104.78044       46.70151
C         -2.91957      103.65165       47.19871
H         -1.87127      103.94883       47.40048
H         -3.37218      103.29314       48.14996
H         -2.94663      102.82284       46.46178
H         -4.47009      105.07549       47.26145
Ca        -0.94338      112.39635       44.52510
O         -2.82678      114.14596       46.52937
H         -2.46538      114.54482       47.36060
H         -3.05815      114.92306       45.96149

Ca 1.0



