%chk=holoCaM-CaMKII.loop1.water2.frame50.chk
%nprocshared=20
%mem=10GB
%nosave
#b3lyp/svp scf=(tight,noincore,xqc) Test 
#IOP(5/87=12) Density=Current Pop=(MK,readradii) iop(6/33=2) iop(6/42=6)

holoCaM-CaMKII.loop1.water2.frame50 

   0  1 
C          4.00568       53.89335       99.25212
C          2.94665       54.58244      100.05970
O          2.70642       54.18276      101.18817
H          4.97335       53.95189       99.79394
H          3.72931       52.83072       99.09949
H          4.13616       54.37525       98.25932
N          2.28789       55.65546       99.54952
C          1.31881       56.43092      100.31051
C          0.08024       55.60614      100.64886
O         -0.49158       55.01919       99.74060
C          0.92768       57.68074       99.50232
C          0.27601       58.71892      100.35332
O         -0.03070       59.78819       99.85718
O          0.13408       58.53807      101.67810
H          2.53464       55.96964       98.59729
H          1.83200       56.78111      101.23105
H          0.28564       57.40968       98.63645
H          1.85210       58.16548       99.11638
N         -0.40742       55.54294      101.92679
C         -1.55533       54.71996      102.31262
C         -2.79900       55.51487      102.69082
O         -3.83432       54.87453      102.82112
C         -1.15743       53.78756      103.48061
C         -0.14080       52.70273      103.08871
C         -0.78698       51.63329      102.18575
C          0.14974       50.46895      101.83868
N          1.27506       50.89462      101.00638
H          0.05718       56.09384      102.65952
H         -1.89372       54.12135      101.44395
H         -2.04939       53.27393      103.90174
H         -0.73086       54.41920      104.29179
H          0.19687       52.19837      104.02047
H          0.74267       53.17268      102.61256
H         -1.15560       52.07513      101.23881
H         -1.65889       51.20715      102.73014
H         -0.44442       49.71551      101.27460
H          0.52211       49.98383      102.76800
H          1.81940       50.05011      100.71804
H          0.92499       51.37772      100.14692
H          1.90911       51.52900      101.54053
N         -2.82000       56.87066      102.85800
C         -4.07019       57.61194      103.06215
C         -4.28763       58.67524      101.98331
O         -5.29271       59.37008      102.04784
C         -4.18036       58.16867      104.50041
C         -3.19901       59.22932      104.89531
O         -2.34513       59.61942      104.12356
O         -3.27700       59.77075      106.12545
H         -1.93698       57.39735      102.82138
H         -4.94025       56.92420      102.97674
H         -4.08320       57.32116      105.21345
H         -5.19784       58.59894      104.62816
N         -3.43431       58.81501      100.92306
C         -3.67973       59.71889       99.81048
C         -3.49651       61.19572      100.10572
O         -3.71879       61.97191       99.18651
H         -2.62630       58.18611      100.82647
H         -4.70683       59.53727       99.42236
H         -2.96966       59.47206       98.99164
N         -3.10132       61.68370      101.32069
C         -2.98194       63.12436      101.56736
C         -1.84571       63.78480      100.76850
O         -1.80674       65.00601      100.73234
C         -2.92881       63.42634      103.08908
C         -1.68922       62.95039      103.78533
O         -0.63504       62.55678      103.06643
O         -1.62075       62.96130      105.00350
H         -2.94248       61.02906      102.09681
H         -3.93742       63.57799      101.22076
H         -3.80082       62.91136      103.54891
H         -3.03505       64.51509      103.27924
N         -0.91061       63.05065      100.08645
C          0.07174       63.62207       99.16997
C          1.52632       63.36836       99.53548
O          2.37126       63.68388       98.70882
H         -0.92547       62.02760      100.15977
H         -0.06039       64.71879       99.05264
H         -0.11266       63.16169       98.17486
N          1.91443       62.87280      100.74684
C          3.31912       62.68980      101.13307
C          3.56993       61.28483      101.66877
O          2.63409       60.50368      101.77096
C          3.72877       63.76896      102.17227
C          3.76308       65.17579      101.55671
O          2.89823       63.74040      103.30493
H          1.19371       62.67476      101.45085
H          3.98749       62.80983      100.25187
H          4.76631       63.57492      102.51504
H          2.03298       64.16678      103.06624
H          4.49041       65.20282      100.71710
H          2.76408       65.47460      101.17629
H          4.08750       65.91116      102.32329
N          4.83560       60.89137      102.01278
C          5.16006       59.56231      102.52660
C          5.78694       59.70872      103.90951
O          6.87551       60.25984      104.01039
C          6.13043       58.82472      101.54954
C          5.53807       58.76125      100.11647
C          6.45522       57.40918      102.06998
C          6.51555       58.20172       99.07744
H          5.61409       61.55716      101.89085
H          4.23695       58.95411      102.60911
H          7.07645       59.40980      101.49982
H          5.28743       59.78933       99.77934
H          4.60394       58.15788      100.11253
H          6.90267       57.45484      103.08023
H          5.53565       56.78735      102.11239
H          7.20323       56.90149      101.43031
H          6.04994       58.24474       98.07063
H          7.44564       58.81013       99.05997
H          6.77348       57.14330       99.27908
N          5.14780       59.25176      105.02621
C          5.73362       59.34082      106.36816
C          6.84533       58.31026      106.53233
O          7.09448       57.54705      105.61574
C          4.65824       59.12728      107.47194
C          3.54230       60.16446      107.39283
O          4.10282       57.84671      107.37030
H          4.20594       58.85023      104.91774
H          6.14711       60.36315      106.51705
H          5.14806       59.24349      108.46451
H          3.63490       57.66402      108.22658
H          3.95619       61.19340      107.44207
H          2.98154       60.02323      106.45424
H          2.83435       60.02338      108.23638
N          7.54062       58.20908      107.69907
C          8.51828       57.15074      107.95343
C          7.81463       55.79283      107.93787
O          8.25232       54.88929      107.24050
C          9.21269       57.38407      109.32026
C         10.35647       56.38791      109.55102
O          9.74439       58.68452      109.34941
H          7.34695       58.89238      108.44613
H          9.31161       57.18989      107.17257
H          8.45087       57.27267      110.12840
H          9.80180       58.95236      110.30424
H         11.12893       56.50454      108.75972
H         10.83295       56.58413      110.53495
H          9.98764       55.34174      109.54424
N          6.68133       55.61682      108.67715
C          5.90054       54.37995      108.77064
C          5.51012       53.85556      107.39600
O          5.78762       52.70303      107.09581
C          4.64410       54.67086      109.62969
C          3.75493       53.45454      109.92454
C          2.56701       53.88946      110.80075
C          1.65038       52.71503      111.16208
N          0.53353       53.16724      111.99410
H          6.33955       56.43821      109.20069
H          6.50883       53.60599      109.28934
H          4.03042       55.44816      109.12477
H          4.98493       55.08297      110.60557
H          4.35204       52.68517      110.46054
H          3.37341       53.02035      108.97503
H          1.97303       54.65673      110.25607
H          2.95135       54.34241      111.74147
H          2.23294       51.94707      111.71771
H          1.25161       52.25319      110.23211
H         -0.03594       53.87780      111.47901
H         -0.07653       52.35073      112.22675
H          0.89160       53.58465      112.88419
N          4.88271       54.66766      106.50469
C          4.47874       54.26723      105.15876
C          5.67339       53.75079      104.37623
O          5.62469       52.62308      103.90505
C          3.81259       55.46113      104.43326
C          2.46257       55.82658      105.08734
C          1.79412       57.02478      104.47512
O          2.31370       57.64823      103.56551
O          0.59441       57.41636      104.94132
H          4.71415       55.63434      106.79933
H          3.72980       53.44535      105.21948
H          3.61597       55.19389      103.37402
H          4.50230       56.33419      104.44774
H          2.59446       56.04472      106.16508
H          1.77678       54.95762      104.99065
N          6.79389       54.50778      104.23467
C          7.99070       54.06156      103.55162
H          8.83612       54.04738      104.27224
H          7.88086       53.04348      103.12348
H          8.23293       54.76769      102.73104
H          6.81485       55.43876      104.65826
Ca        -0.12671       60.41723      102.81335
O         -0.02639       59.83206      106.56111
H         -0.72896       59.14194      106.47037
H          0.35579       59.67404      107.45997
O          1.82450       61.52894      105.03482
H          1.43816       62.02971      104.28083
H          1.69649       62.11960      105.81872

Ca 1.0



