%chk=holoCaM-CaMKII.loop4.water1.frame483.chk
%nprocshared=20
%mem=10GB
%nosave
#b3lyp/svp scf=(tight,noincore,xqc) Test 
#IOP(5/87=12) Density=Current Pop=(MK,readradii) iop(6/33=2) iop(6/42=6)

holoCaM-CaMKII.loop4.water1.frame483 

   -3  1 
C         86.81856       64.69268       71.32791
C         86.55476       63.24075       71.07218
O         85.89956       62.60853       71.88748
H         87.42229       65.14432       70.51280
H         85.85173       65.23520       71.39258
H         87.36825       64.80427       72.28466
N         87.00428       62.64633       69.93402
C         86.71612       61.25661       69.62114
C         87.50733       60.31929       70.53210
O         88.71946       60.46462       70.60692
C         87.04787       60.96213       68.14575
C         86.37898       59.70378       67.68229
O         86.53459       59.32412       66.53378
O         85.50437       59.06210       68.48272
H         87.50708       63.22144       69.23969
H         85.61788       61.12349       69.73376
H         88.14743       60.91799       67.99074
H         86.63613       61.76984       67.50056
N         86.89252       59.31455       71.22256
C         87.58100       58.40608       72.14512
C         87.68251       56.98290       71.58120
O         88.33759       56.16300       72.20867
C         86.86142       58.47384       73.53700
C         86.97835       59.91712       74.09670
C         87.40810       57.45096       74.55643
C         86.22115       60.15177       75.40502
H         85.88311       59.18338       71.09229
H         88.63770       58.72775       72.27908
H         85.78503       58.23424       73.38392
H         86.55446       60.62594       73.35877
H         88.04926       60.17612       74.24885
H         88.49408       57.60506       74.72865
H         86.86967       57.50988       75.52055
H         87.22089       56.41226       74.22276
H         85.14514       59.91021       75.27573
H         86.64234       59.55211       76.23610
H         86.31617       61.21906       75.69464
N         87.16087       56.62379       70.37506
C         87.33698       55.28636       69.81400
C         88.41321       55.32748       68.75716
O         89.38683       54.59326       68.84662
C         86.03085       54.77957       69.16597
C         84.89914       54.65174       70.13662
O         83.86662       55.27464       69.95453
O         84.99775       53.81802       71.18776
H         86.68876       57.32931       69.79755
H         87.64832       54.55466       70.59264
H         86.21001       53.78223       68.70802
H         85.72780       55.47154       68.35404
N         88.25659       56.15019       67.69376
C         89.13421       56.20014       66.54562
C         88.39210       55.68797       65.32869
O         88.94026       54.89247       64.58070
H         87.43413       56.76634       67.68484
H         90.06741       55.61347       66.69111
H         89.42307       57.26277       66.39059
N         87.12264       56.11112       65.08012
C         86.34405       55.81557       63.88819
C         86.01944       57.13876       63.18555
O         85.22232       57.13932       62.25846
C         85.09725       54.94796       64.24029
C         84.34650       55.42888       65.44002
O         84.24603       54.71809       66.42760
O         83.93011       56.69375       65.49648
H         86.66811       56.74482       65.75042
H         86.91980       55.21095       63.15548
H         85.44873       53.91868       64.47615
H         84.42000       54.87838       63.36411
N         86.69697       58.28964       63.50491
C         86.56529       59.54581       62.79026
C         85.30322       60.32764       63.07987
O         85.17850       61.40419       62.51623
H         87.44018       58.27160       64.21706
H         86.67236       59.36069       61.70000
H         87.40582       60.20706       63.09866
N         84.33684       59.88692       63.93763
C         83.13007       60.66045       64.23707
C         82.99857       60.90742       65.72598
O         83.75976       60.34344       66.49374
C         81.89618       59.97273       63.59820
C         81.66292       58.47604       63.90955
C         81.10329       58.16590       65.28004
N         79.92652       57.50683       65.40108
O         81.71901       58.47079       66.28671
H         84.45104       58.97496       64.39618
H         83.20069       61.66860       63.77441
H         82.08498       60.01759       62.50257
H         80.96901       60.55333       63.79188
H         82.59391       57.90318       63.73588
H         80.93583       58.10270       63.15756
H         79.39452       57.20955       64.57040
H         79.55170       57.27198       66.33104
N         82.06392       61.78128       66.20570
C         81.86652       62.01742       67.63270
C         80.40979       61.74660       67.96069
O         79.56380       62.54082       67.57274
C         82.29168       63.46763       68.01737
C         82.06634       63.75693       69.51174
C         83.77409       63.71313       67.68700
H         81.47716       62.30127       65.53654
H         82.49491       61.32286       68.22114
H         81.68396       64.19156       67.42998
H         82.67227       63.07010       70.13823
H         82.36106       64.80217       69.74907
H         80.99674       63.64660       69.78238
H         83.96804       63.57155       66.60362
H         84.05914       64.75605       67.94564
H         84.42331       63.01803       68.26131
N         80.03375       60.61852       68.63751
C         78.63245       60.36026       68.97357
C         78.19930       61.24402       70.13421
O         79.02241       61.98524       70.63958
C         78.32366       58.85913       69.21657
C         78.73563       58.25448       70.53955
N         80.02732       58.04890       70.86857
O         77.86340       57.88986       71.31387
H         80.75490       59.92373       68.86031
H         78.02829       60.61214       68.07315
H         78.72876       58.25177       68.38099
H         77.21729       58.76115       69.16274
H         80.79099       58.29361       70.23072
H         80.25929       57.59558       71.76450
N         76.92316       61.23356       70.60886
C         76.48029       62.09482       71.70610
C         77.21033       61.79195       73.00723
O         77.69769       62.71656       73.64060
C         74.95979       61.95419       71.92532
C         74.45955       62.93567       72.96430
C         74.60122       64.32070       72.75826
C         73.85387       62.48026       74.14713
C         74.15443       65.23014       73.71904
C         73.40342       63.39397       75.10651
C         73.55457       64.77271       74.89521
O         73.12825       65.66511       75.81147
H         76.23578       60.61343       70.15535
H         76.67813       63.14938       71.41602
H         74.72733       60.90737       72.22288
H         74.42954       62.16186       70.97113
H         75.06023       64.70147       71.85506
H         73.73260       61.41992       74.32997
H         74.27570       66.29254       73.54749
H         72.93908       63.02969       76.01400
H         72.70662       65.39274       76.63870
N         77.31436       60.51330       73.46312
C         77.97554       60.13799       74.71573
C         79.37741       60.73034       74.79298
O         79.70752       61.32203       75.81145
C         77.97332       58.59897       74.88654
C         76.53194       58.06730       75.06976
C         76.44826       56.57136       75.20084
O         77.54889       55.79830       75.12572
O         75.35832       56.04634       75.36625
H         76.92611       59.77112       72.86419
H         77.40781       60.55816       75.57602
H         78.55223       58.32571       75.79682
H         78.46054       58.12304       74.00730
H         75.89462       58.35507       74.20935
H         76.09959       58.52267       75.98789
N         80.21646       60.70067       73.72280
C         81.50777       61.39450       73.69925
C         81.32283       62.89357       73.90605
O         81.91877       63.43561       74.82609
C         82.23396       61.10491       72.37083
C         82.68138       59.63267       72.34105
C         83.24912       59.19390       71.02725
O         83.66271       57.92192       70.88533
O         83.32302       59.95824       70.08148
H         79.89436       60.21117       72.87312
H         82.15740       61.01609       74.52038
H         83.14318       61.73864       72.27363
H         81.55245       61.33557       71.52132
H         81.82562       58.97410       72.56413
H         83.44462       59.47339       73.13248
N         80.49226       63.61815       73.10759
C         80.24232       65.03728       73.26320
H         79.16739       65.19711       73.49593
H         80.84792       65.48941       74.07534
H         80.47751       65.55863       72.31169
H         79.98327       63.13984       72.36356
Ca        84.22641       57.53226       67.52362
O         81.08288       56.04793       68.57356
H         80.09338       56.02942       68.59308
H         81.34758       55.86094       69.50872

Ca 1.0



