%chk=holoCaM.loop3.water2.frame33.chk
%nprocshared=20
%mem=10GB
%nosave
#b3lyp/svp scf=(tight,noincore,xqc) Test 
#IOP(5/87=12) Density=Current Pop=(MK,readradii) iop(6/33=2) iop(6/42=6)

holoCaM.loop3.water2.frame33 

   0  1 
C         87.33881       88.15692       22.62224
C         86.63478       89.44920       22.88855
O         86.45030       89.80161       24.04565
H         88.35987       88.19463       23.05629
H         86.76523       87.32748       23.08112
H         87.42805       87.96983       21.53100
N         86.24161       90.23402       21.85157
C         85.61851       91.52470       22.05317
C         84.17634       91.36393       22.54021
O         83.37310       90.74666       21.85605
C         85.74656       92.35935       20.76652
C         85.40195       93.77803       21.03968
O         84.77595       94.07750       22.18223
O         85.64834       94.64390       20.22417
H         86.46726       89.93696       20.88972
H         86.22782       92.07148       22.81177
H         85.14540       91.94944       19.92522
H         86.81900       92.35429       20.47575
N         83.80306       91.88031       23.74656
C         82.50017       91.66996       24.37109
C         81.34267       92.29823       23.59226
O         80.34230       91.62480       23.38903
C         82.52795       92.19353       25.83851
C         81.35814       91.69269       26.72989
C         81.29392       90.15192       26.87462
C         82.49625       89.54279       27.62852
N         82.60459       88.10891       27.36004
H         84.51721       92.38110       24.28843
H         82.36928       90.57511       24.40838
H         82.55063       93.30539       25.83669
H         83.47245       91.86866       26.31263
H         80.40394       92.05047       26.28948
H         81.45069       92.14099       27.74429
H         81.19979       89.69841       25.87343
H         80.36865       89.85655       27.41547
H         82.37273       89.73058       28.71938
H         83.45757       89.99648       27.32270
H         82.86142       87.97328       26.35329
H         83.36876       87.70265       27.94687
H         81.70565       87.61652       27.56115
N         81.41167       93.58788       23.14262
C         80.31939       94.28632       22.44411
C         80.64211       94.63029       20.99026
O         79.78567       95.20320       20.32816
C         79.89570       95.58689       23.18978
C         80.94332       96.66374       23.34038
O         82.24108       96.38774       23.21924
O         80.61599       97.79154       23.66560
H         82.30004       94.07698       23.29570
H         79.41887       93.63388       22.40831
H         79.51393       95.35141       24.20341
H         79.05280       96.03528       22.61956
N         81.83053       94.31325       20.41224
C         82.16516       94.66927       19.04520
C         82.28000       96.16791       18.85481
O         81.65681       96.69742       17.94540
H         82.53220       93.78537       20.94476
H         81.42687       94.23035       18.33571
H         83.15754       94.23200       18.80183
N         83.13664       96.89525       19.63142
C         83.48275       98.29310       19.36547
C         84.90848       98.38294       18.79903
O         85.36661       99.48827       18.55108
C         83.30435       99.19816       20.62980
C         84.27999       98.94408       21.75358
N         84.31962       99.71985       22.85806
O         85.07369       98.04117       21.66110
H         83.64498       96.39935       20.37710
H         82.80603       98.71059       18.58880
H         82.26743       99.10940       21.02010
H         83.46451      100.25153       20.31597
H         83.68313      100.51738       22.97599
H         85.01581       99.52180       23.59504
N         85.66018       97.26121       18.55629
C         87.01499       97.26849       18.01910
C         88.10653       97.23775       19.08735
O         89.27062       97.25489       18.71661
H         85.23963       96.33700       18.68512
H         87.15768       98.15743       17.36884
H         87.13619       96.37504       17.36875
N         87.81386       97.25142       20.41992
C         88.79547       97.39947       21.49621
C         88.52667       96.46330       22.65736
O         87.42689       95.94042       22.77437
C         88.70592       98.83597       22.04957
C         89.15916       99.80956       21.00357
C         88.24653      100.37368       20.10063
C         90.52177      100.11573       20.89509
C         88.69751      101.22426       19.08776
C         90.97086      100.97222       19.89083
C         90.06075      101.52400       18.97742
O         90.48656      102.33533       17.98968
H         86.83761       97.25093       20.67873
H         89.82150       97.20618       21.11348
H         89.34256       98.96119       22.95321
H         87.66133       99.05864       22.36892
H         87.19408      100.13691       20.17288
H         91.23479       99.68216       21.58589
H         87.98896      101.64168       18.38357
H         92.02710      101.19565       19.81926
H         91.42301      102.55094       17.87392
N         89.50987       96.23012       23.58176
C         89.30234       95.41744       24.77734
C         90.00070       96.07954       25.96397
O         91.21915       96.19574       25.93056
C         89.85636       93.97203       24.58628
C         89.41856       93.36831       23.22596
C         89.37118       93.09386       25.75861
C         89.99616       91.97947       22.94840
H         90.45095       96.61469       23.40489
H         88.21061       95.33830       24.96983
H         90.96889       94.01076       24.58467
H         89.79045       94.01990       22.40606
H         88.31118       93.32563       23.16636
H         89.65768       93.53097       26.73497
H         88.26517       93.00415       25.72895
H         89.80704       92.07821       25.72052
H         89.63251       91.23133       23.67961
H         89.67234       91.64566       21.94027
H         91.10685       92.01285       22.97043
N         89.30833       96.54146       27.04408
C         89.98216       97.14200       28.19980
C         90.60336       96.07398       29.10074
O         90.42358       94.89385       28.84403
C         89.00124       98.03232       28.98398
O         87.93154       97.27921       29.47785
H         88.27866       96.49395       27.02620
H         90.78418       97.82086       27.83371
H         88.61666       98.81359       28.28998
H         89.52711       98.53141       29.82712
H         87.27334       97.92913       29.83628
N         91.35531       96.42775       30.18546
C         91.92462       95.46154       31.12849
C         90.82462       94.72657       31.87096
O         90.90635       93.51558       32.01694
C         92.83678       96.16024       32.13974
H         91.52836       97.43084       30.35075
H         92.56825       94.73769       30.57885
H         93.33096       95.40025       32.78489
H         93.63156       96.71938       31.60155
H         92.26651       96.86343       32.78159
N         89.73362       95.40856       32.32419
C         88.56402       94.76783       32.91802
C         87.98135       93.74358       31.95749
O         87.81639       92.59084       32.33041
C         87.49948       95.83217       33.24056
H         89.71007       96.43048       32.18129
H         88.84558       94.26634       33.87026
H         86.58926       95.36091       33.66850
H         87.89801       96.56046       33.97847
H         87.20611       96.39480       32.32693
N         87.65309       94.11418       30.68988
C         87.04998       93.22565       29.69892
C         87.99176       92.10037       29.25820
O         87.54213       91.18230       28.58739
C         86.64895       94.08736       28.48176
C         85.76394       93.40116       27.44039
C         85.48167       94.37371       26.33140
O         84.83255       95.52293       26.59215
O         85.86563       94.14510       25.19713
H         87.81375       95.09619       30.43650
H         86.13342       92.79637       30.16064
H         87.57876       94.45454       27.99531
H         86.08162       94.96842       28.85715
H         84.80769       93.08624       27.91085
H         86.26407       92.50736       27.01917
N         89.31887       92.12125       29.55988
C         90.24829       91.10987       29.10846
H         91.27177       91.35548       29.46802
H         89.95884       90.11567       29.50571
H         90.26831       91.08265       27.99894
H         89.70325       92.89796       30.09830
Ca        84.40088       96.02864       23.04997
O         86.42474       97.89494       25.36329
H         85.80693       98.50859       25.83415
H         87.15541       98.48107       25.04414
O         83.37258       97.72065       25.45853
H         82.58874       97.28328       25.87519
H         82.99194       98.31485       24.76549

Ca 1.0



