%chk=holoCaM.loop4.water3.frame474.chk
%nprocshared=20
%mem=10GB
%nosave
#b3lyp/svp scf=(tight,noincore,xqc) Test 
#IOP(5/87=12) Density=Current Pop=(MK,readradii) iop(6/33=2) iop(6/42=6)

holoCaM.loop4.water3.frame474 

   -3  1 
C         42.20794       65.98393       75.83235
C         42.25218       65.58875       77.27376
O         42.04149       64.42075       77.55712
H         42.40834       67.06727       75.70859
H         42.97480       65.40881       75.27214
H         41.20371       65.75316       75.41880
N         42.49456       66.51563       78.24632
C         42.54663       66.17655       79.66281
C         42.42562       67.42315       80.56221
O         42.69627       68.53538       80.13626
C         43.84110       65.37667       79.94898
C         43.95316       64.96098       81.36951
O         44.89871       65.34097       82.04345
O         42.96347       64.23930       81.92386
H         42.61582       67.49592       77.95996
H         41.65642       65.54482       79.87967
H         44.71972       66.00319       79.68681
H         43.87530       64.45104       79.34068
N         41.91856       67.27417       81.81795
C         41.68299       68.32744       82.81332
C         42.28949       67.90739       84.16365
O         42.96911       68.69878       84.80088
C         40.14116       68.56962       83.01167
C         39.46337       69.07616       81.71004
C         39.91706       69.60181       84.14889
C         37.92601       69.02506       81.77099
H         41.63882       66.32524       82.05774
H         42.11837       69.29586       82.48102
H         39.65477       67.60939       83.29559
H         39.75195       68.43346       80.85364
H         39.80031       70.11442       81.49493
H         38.86181       69.91160       84.26223
H         40.21843       69.17797       85.12935
H         40.52209       70.51606       83.96112
H         37.50083       69.62107       82.60178
H         37.49889       69.42516       80.82740
H         37.58636       67.97289       81.88458
N         41.99102       66.67586       84.66898
C         42.24418       66.16843       86.02118
C         43.31287       65.06393       86.07851
O         43.63395       64.61922       87.17156
C         40.87243       65.65586       86.56644
C         40.25819       64.57495       85.69102
O         41.05472       63.96560       84.79178
O         39.05933       64.35280       85.72491
H         41.46313       66.06285       84.05310
H         42.61647       66.99543       86.66481
H         40.18957       66.53346       86.53989
H         40.93115       65.29018       87.61044
N         43.92037       64.59459       84.95141
C         45.02541       63.63793       84.92499
C         44.73665       62.23520       85.43916
O         45.68043       61.46102       85.51642
H         43.63301       64.99825       84.06114
H         45.86221       64.06672       85.51480
H         45.37945       63.52379       83.87686
N         43.49416       61.82282       85.81399
C         43.23119       60.50685       86.40281
C         43.55710       59.30752       85.50731
O         43.64288       58.20830       86.03872
C         41.76088       60.39477       86.87775
C         40.72494       60.59457       85.80296
O         41.02956       61.00551       84.69872
O         39.43050       60.36612       86.08460
H         42.71906       62.48731       85.73506
H         43.88040       60.42173       87.30235
H         41.55741       61.15357       87.66107
H         41.61077       59.38800       87.32125
N         43.65970       59.41266       84.15383
C         43.88699       58.26885       83.27335
C         42.62701       57.81607       82.54840
O         42.69840       56.82203       81.84046
H         43.49328       60.32817       83.73190
H         44.26671       57.39987       83.85249
H         44.67038       58.52921       82.52893
N         41.43560       58.46363       82.70014
C         40.18037       58.06283       82.07197
C         39.61533       59.21088       81.24670
O         40.17573       60.29732       81.28854
C         39.17492       57.64761       83.17335
C         39.73637       56.49211       84.02493
C         38.74761       55.95281       85.02850
N         39.12254       55.70992       86.30762
O         37.61315       55.67328       84.67074
H         41.39725       59.27710       83.30797
H         40.34765       57.19949       81.39281
H         38.23626       57.30807       82.68342
H         38.93184       58.51527       83.82703
H         40.66253       56.81555       84.55144
H         39.99663       55.66125       83.33966
H         40.08883       55.88359       86.62127
H         38.45578       55.29789       86.97783
N         38.48521       59.05129       80.49072
C         37.88277       60.14662       79.73468
C         36.56953       60.53128       80.38135
O         35.61403       59.76819       80.34600
C         37.70667       59.79376       78.22929
C         36.98757       60.91478       77.45363
C         39.06889       59.53549       77.57467
H         38.01639       58.13329       80.47597
H         38.54121       61.03754       79.77406
H         37.08616       58.87525       78.13681
H         36.87385       60.63915       76.38390
H         35.96537       61.07159       77.84857
H         37.55097       61.86754       77.51420
H         39.71615       60.43477       77.65931
H         39.57647       58.67756       78.06029
H         38.93900       59.29816       76.49695
N         36.47498       61.73891       81.00077
C         35.25709       62.28735       81.56362
C         34.32442       62.69248       80.42914
O         34.72949       62.67192       79.28266
C         35.63978       63.52646       82.42506
C         34.52914       64.09858       83.25872
N         33.95265       63.35535       84.22966
O         34.17521       65.25477       83.08924
H         37.31969       62.30441       81.07768
H         34.79745       61.51214       82.21384
H         36.07148       64.31223       81.76418
H         36.42653       63.23538       83.14806
H         34.26400       62.38945       84.40700
H         33.20972       63.75388       84.82042
N         33.05504       63.07888       80.68839
C         32.11454       63.60539       79.69114
C         32.58733       64.92487       79.09912
O         32.51728       65.07910       77.88721
C         30.68006       63.69185       80.27227
C         30.59121       64.15655       81.71061
C         30.47798       63.18333       82.72304
C         30.64477       65.50948       82.06972
C         30.43376       63.55056       84.06399
C         30.58315       65.88001       83.42132
C         30.47922       64.89805       84.42126
O         30.42016       65.23260       85.72545
H         32.76250       62.98285       81.66387
H         32.02783       62.89394       78.83606
H         30.31690       62.64130       80.26057
H         29.98039       64.24456       79.60759
H         30.45538       62.12935       82.47217
H         30.72438       66.27023       81.30658
H         30.36823       62.78193       84.82391
H         30.61888       66.92707       83.69267
H         30.42310       66.15233       86.02338
N         33.10860       65.91025       79.87727
C         33.65214       67.15340       79.32999
C         34.81125       66.86792       78.37896
O         34.88685       67.48872       77.32853
C         34.07522       68.11843       80.46616
C         32.87039       68.64980       81.27617
C         31.86877       69.37152       80.41037
O         30.60528       68.91374       80.31358
O         32.19754       70.36658       79.78399
H         33.15961       65.74831       80.89084
H         32.87156       67.67305       78.73586
H         34.59483       68.99696       80.02722
H         34.78757       67.61066       81.15487
H         33.23048       69.35652       82.05405
H         32.36822       67.81225       81.79645
N         35.72893       65.91044       78.67058
C         36.81896       65.51299       77.77358
C         36.31715       64.81138       76.51679
O         36.93759       64.97336       75.47564
C         37.77952       64.58249       78.54078
C         38.51467       65.40101       79.61947
C         39.19459       64.57335       80.65701
O         39.68132       65.17356       81.75023
O         39.25273       63.36495       80.56954
H         35.63190       65.42214       79.57472
H         37.41515       66.40080       77.46447
H         38.53607       64.11353       77.87255
H         37.17563       63.76914       79.00095
H         37.78830       66.02412       80.17370
H         39.25443       66.07781       79.13477
N         35.22285       64.00120       76.53922
C         34.76897       63.21236       75.41130
H         33.78012       63.58104       75.06943
H         35.48539       63.23522       74.56428
H         34.65701       62.15336       75.73156
H         34.67123       63.93621       77.39471
Ca        41.26821       63.02534       82.76955
O         38.56839       62.04363       83.35705
H         38.46152       61.29467       83.99010
H         38.91609       62.78276       83.90892
O         43.37646       61.40900       81.67875
H         44.23717       61.76169       82.01783
H         43.55784       61.15077       80.74392
O         41.51527       62.23363       79.76033
H         40.74104       62.07683       79.16687
H         42.17030       62.70686       79.19705

Ca 1.0



