%chk=holoCaM-CaMKII.loop1.water2.frame242.chk
%nprocshared=20
%mem=10GB
%nosave
#b3lyp/svp scf=(tight,noincore,xqc) Test 
#IOP(5/87=12) Density=Current Pop=(MK,readradii) iop(6/33=2) iop(6/42=6)

holoCaM-CaMKII.loop1.water2.frame242 

   0  1 
C         94.19505      116.27299       38.12968
C         95.09695      117.45335       38.33778
O         95.76266      117.84186       37.39730
H         93.46391      116.50273       37.32640
H         94.80323      115.39389       37.83124
H         93.63586      116.01782       39.05419
N         95.13690      118.08888       39.54112
C         95.96192      119.25644       39.86544
C         97.44163      118.87231       40.02339
O         97.93237      118.85132       41.14340
C         95.34928      119.90491       41.14026
C         96.05735      121.09035       41.75142
O         96.38470      122.18815       41.04253
O         96.28664      121.07816       42.94974
H         94.48793      117.74216       40.26498
H         95.84508      120.00224       39.06373
H         95.24903      119.13346       41.93596
H         94.32291      120.24003       40.87016
N         98.21190      118.52888       38.94362
C         99.57386      118.01246       39.06365
C        100.63144      119.06673       39.36158
O        101.75509      118.65536       39.61885
C         99.99328      117.22658       37.80024
C         99.12558      115.97669       37.58113
C         99.68881      115.11757       36.43882
C         98.95014      113.77955       36.26955
N         97.56146      113.95398       35.84353
H         97.80284      118.55783       38.00647
H         99.58650      117.28478       39.90631
H        101.03954      116.87622       37.94401
H         99.96780      117.88381       36.90245
H         98.07976      116.27713       37.36692
H         99.14013      115.36744       38.51133
H        100.74754      114.87333       36.67812
H         99.67192      115.68623       35.48382
H         98.98404      113.20701       37.22362
H         99.48767      113.18454       35.49831
H         97.00577      114.44748       36.57698
H         97.52707      114.48827       34.94525
H         97.13636      113.01094       35.69077
N        100.38207      120.41113       39.37737
C        101.40357      121.37873       39.79243
C        101.10586      121.92051       41.18513
O        101.92729      122.65330       41.71863
C        101.65366      122.45974       38.71683
C        100.52089      123.41193       38.45077
O         99.37565      123.35451       39.15149
O        100.65650      124.27474       37.59800
H         99.43487      120.75329       39.16209
H        102.38185      120.86375       39.90670
H        101.91714      121.94535       37.76641
H        102.53199      123.06927       39.02437
N         99.99668      121.52104       41.87361
C         99.76104      121.80965       43.27228
C         99.58847      123.27212       43.55414
O        100.30512      123.79835       44.39318
H         99.30205      120.91224       41.42637
H        100.59112      121.38739       43.87886
H         98.82695      121.29642       43.58626
N         98.61742      123.98120       42.91773
C         98.30336      125.36884       43.23431
C         96.87793      125.52918       43.76507
O         96.54537      126.63160       44.17770
C         98.61503      126.28541       42.03031
C         97.84095      126.02915       40.76296
O         98.06769      126.71843       39.78240
O         96.91634      125.05815       40.67800
H         98.07128      123.50129       42.19338
H         98.96251      125.71749       44.05900
H         99.69469      126.17176       41.78950
H         98.44221      127.34058       42.33242
N         95.98961      124.48797       43.81126
C         94.65897      124.57949       44.39411
C         93.54952      124.49679       43.36424
O         92.39648      124.52614       43.77111
H         96.24887      123.57110       43.43224
H         94.52095      125.54312       44.93118
H         94.54879      123.76652       45.14370
N         93.80564      124.50300       42.02156
C         92.76888      124.71001       41.01498
C         92.97996      123.83705       39.78338
O         94.01803      123.92435       39.14360
C         92.74726      126.20224       40.59659
C         92.24284      127.11804       41.72294
O         94.00674      126.63005       40.13803
H         94.77986      124.54132       41.70440
H         91.76387      124.48509       41.43628
H         92.02119      126.31771       39.76269
H         94.60317      126.73876       40.92551
H         91.21908      126.81352       42.02950
H         92.90949      127.07836       42.60932
H         92.20340      128.16646       41.36108
N         91.99151      122.99515       39.37309
C         92.03917      122.21115       38.13879
C         91.80033      123.13389       36.94026
O         90.88997      123.94990       36.99216
C         90.97088      121.07159       38.18552
C         91.23095      120.14940       39.41267
C         90.99987      120.24477       36.88147
C         90.15504      119.08375       39.62588
H         91.13996      122.93575       39.95191
H         93.02397      121.69683       38.05256
H         89.96335      121.53333       38.28858
H         91.24654      120.75231       40.34327
H         92.22323      119.65618       39.31583
H         90.77873      120.88421       36.00665
H         91.99563      119.77057       36.73889
H         90.22257      119.45655       36.87945
H         89.16013      119.56380       39.74325
H         90.12190      118.35851       38.78960
H         90.38372      118.51461       40.55158
N         92.52435      122.98556       35.79248
C         92.31736      123.76802       34.56864
C         91.74352      122.87111       33.48185
O         91.58102      121.68953       33.72897
C         93.66105      124.37574       34.08851
C         94.28939      125.28636       35.14232
O         94.56128      123.34321       33.77755
H         93.21191      122.22445       35.75815
H         91.58630      124.58642       34.74839
H         93.46132      124.98220       33.17454
H         95.23959      123.72046       33.15838
H         93.60466      126.12275       35.39138
H         94.51811      124.70957       36.06223
H         95.23996      125.70868       34.75042
N         91.38414      123.35131       32.25656
C         90.89353      122.46273       31.19814
C         92.01247      121.60584       30.61687
O         91.72280      120.56680       30.04157
C         90.20293      123.24130       30.05499
C         88.94071      123.95029       30.54893
O         91.07794      124.18900       29.49562
H         91.44884      124.36600       32.08206
H         90.12646      121.78412       31.63653
H         89.86244      122.52153       29.27149
H         91.57894      123.73378       28.76945
H         88.22598      123.20688       30.96389
H         89.18069      124.69504       31.33572
H         88.44772      124.47284       29.70244
N         93.30680      122.02996       30.65070
C         94.41946      121.27742       30.07254
C         94.62750      120.01861       30.88883
O         94.61562      118.91964       30.35289
C         95.70701      122.14489       30.05700
C         95.49636      123.42325       29.21872
C         96.73261      124.32670       29.17203
C         96.38880      125.63391       28.43631
N         97.54040      126.53032       28.36537
H         93.50649      122.93433       31.09848
H         94.19671      121.01868       29.01314
H         96.54102      121.55440       29.61675
H         95.99404      122.43034       31.09258
H         94.67245      124.02120       29.65643
H         95.20926      123.14397       28.18147
H         97.56311      123.79874       28.65465
H         97.05298      124.57414       30.20791
H         95.56377      126.15017       28.97837
H         96.03708      125.40620       27.40544
H         98.30534      126.08640       27.80804
H         97.24894      127.41805       27.89487
H         97.88281      126.75598       29.32737
N         94.77003      120.14035       32.23239
C         94.91122      119.04191       33.17974
C         93.71755      118.10385       33.09644
O         93.90663      116.91149       32.90211
C         95.02740      119.64026       34.59786
C         96.33847      120.44117       34.76173
C         96.35094      121.21048       36.04217
O         95.51210      122.06790       36.25063
O         97.28794      120.98959       36.96955
H         94.73122      121.09810       32.60756
H         95.83606      118.46052       32.96733
H         94.99764      118.83620       35.35478
H         94.14754      120.29724       34.77478
H         96.46855      121.18536       33.95138
H         97.19830      119.73803       34.72502
N         92.45329      118.58352       33.21910
C         91.27555      117.74873       33.14686
H         90.36384      118.37924       33.23847
H         91.24093      117.22014       32.17118
H         91.28128      117.01239       33.97716
H         92.32325      119.58604       33.35162
Ca        96.90715      122.10062       38.87502
O         97.70879      124.35202       36.02978
H         98.42345      123.66872       35.98535
H         98.18403      125.19518       36.23878
O         96.12455      126.21433       37.70325
H         95.28367      125.87237       38.09245
H         95.84317      126.98369       37.14873

Ca 1.0



