%chk=holoCaM.loop4.water3.frame437.chk
%nprocshared=20
%mem=10GB
%nosave
#b3lyp/svp scf=(tight,noincore,xqc) Test 
#IOP(5/87=12) Density=Current Pop=(MK,readradii) iop(6/33=2) iop(6/42=6)

holoCaM.loop4.water3.frame437 

   -3  1 
C        117.69761       70.13582       51.32157
C        118.00320       68.93902       52.17005
O        117.12297       68.10571       52.32820
H        116.84876       70.69935       51.76232
H        118.57458       70.80914       51.23480
H        117.41228       69.79327       50.30357
N        119.22745       68.78220       52.75689
C        119.56863       67.60189       53.54566
C        120.92087       67.78234       54.24011
O        121.90088       68.10664       53.58421
C        119.60448       66.34349       52.64424
C        119.63002       65.06370       53.43365
O        119.71278       63.99524       52.85088
O        119.48203       65.07594       54.77039
H        119.92691       69.53185       52.64331
H        118.77392       67.47321       54.31539
H        120.48691       66.40220       51.97146
H        118.69938       66.27872       52.00854
N        121.03259       67.55428       55.57774
C        122.24286       67.76133       56.37564
C        122.81429       66.42961       56.86884
O        124.02942       66.29655       56.91043
C        121.88411       68.69099       57.58349
C        121.38697       70.06968       57.07023
C        123.06644       68.86548       58.55928
C        120.79120       70.96138       58.16468
H        120.19084       67.23137       56.07239
H        123.04032       68.26299       55.78228
H        121.06665       68.20304       58.15282
H        120.58411       69.91689       56.32255
H        122.21762       70.60639       56.56278
H        123.92792       69.34776       58.05259
H        122.77430       69.47435       59.43815
H        123.38840       67.88664       58.97081
H        120.41392       71.90060       57.70802
H        119.94002       70.44614       58.65816
H        121.54232       71.24100       58.92890
N        122.00252       65.43195       57.31496
C        122.46772       64.22656       58.01377
C        122.20350       62.92009       57.26558
O        122.63878       61.88756       57.75794
C        121.78771       64.17390       59.40838
C        120.30922       64.45519       59.28649
O        119.56799       63.79236       58.37740
O        119.83369       65.42823       59.84975
H        120.99080       65.55955       57.19737
H        123.57006       64.25828       58.15679
H        122.23021       64.96591       60.05208
H        121.97223       63.19687       59.90412
N        121.51500       62.86377       56.09379
C        121.27305       61.62646       55.36474
C        120.53466       60.59792       56.19500
O        121.05369       59.50368       56.36586
H        121.15458       63.72955       55.68696
H        122.24650       61.20413       55.03023
H        120.67060       61.85027       54.45848
N        119.32367       60.88414       56.75181
C        118.56939       59.93383       57.57123
C        117.16953       59.66023       57.01326
O        116.40390       58.97383       57.67574
C        118.54947       60.40243       59.04731
C        117.84905       61.69684       59.34193
O        117.31523       62.34715       58.46133
O        117.81791       62.15043       60.60907
H        118.93511       61.82785       56.60674
H        119.08581       58.94950       57.60227
H        119.60271       60.50375       59.39004
H        118.06843       59.61464       59.66608
N        116.78168       60.10717       55.78056
C        115.47635       59.82165       55.19118
C        114.31881       60.59733       55.80008
O        113.20061       60.41306       55.33637
H        117.45887       60.60488       55.18802
H        115.28210       58.72845       55.24107
H        115.50835       60.10875       54.11797
N        114.49707       61.49202       56.80895
C        113.44245       62.31324       57.39801
C        113.79707       63.79122       57.26218
O        114.86276       64.10546       56.74153
C        113.19561       61.88893       58.86946
C        114.47492       61.84109       59.71529
C        114.21077       61.46712       61.14815
N        114.61568       62.27484       62.15598
O        113.65314       60.41062       61.40541
H        115.44433       61.62708       57.17366
H        112.48079       62.16847       56.85666
H        112.75527       60.86764       58.86715
H        112.45421       62.57162       59.33619
H        114.97618       62.82530       59.66611
H        115.14987       61.06365       59.30478
H        115.10758       63.15892       61.96182
H        114.45356       62.00752       63.13776
N        112.93399       64.76205       57.67471
C        113.18023       66.19073       57.49363
C        113.24133       66.86785       58.85340
O        112.29674       66.74332       59.62427
C        112.07264       66.82117       56.60009
C        112.39298       68.29267       56.28467
C        111.91372       66.05786       55.27462
H        112.03836       64.48175       58.10738
H        114.14745       66.35440       56.96637
H        111.09768       66.77407       57.13444
H        111.59143       68.74239       55.66072
H        112.46783       68.88682       57.21586
H        113.35296       68.37228       55.72868
H        112.86330       66.06260       54.69775
H        111.61128       65.00621       55.46133
H        111.11683       66.52623       54.65712
N        114.31147       67.63853       59.19667
C        114.42661       68.35235       60.46583
C        113.95474       69.78752       60.29676
O        113.64303       70.19618       59.19023
C        115.90962       68.29004       60.92536
C        116.22376       68.93370       62.25152
N        115.66642       68.47179       63.39327
O        117.01063       69.86788       62.29889
H        115.04787       67.78933       58.49158
H        113.77267       67.87264       61.22650
H        116.53804       68.76674       60.14057
H        116.21470       67.23399       61.01503
H        115.01312       67.67615       63.37517
H        115.89627       68.90816       64.29797
N        113.84334       70.60533       61.37704
C        113.48176       72.02132       61.30430
C        114.60938       72.90242       60.74302
O        114.38763       74.09712       60.60703
C        112.95909       72.49860       62.68378
C        113.89356       72.20641       63.83621
C        113.53026       71.24627       64.79920
C        115.12570       72.86025       63.95747
C        114.39286       70.93610       65.85148
C        115.98858       72.55256       65.01431
C        115.62549       71.58439       65.96263
O        116.44999       71.26831       66.98090
H        113.99087       70.18112       62.30065
H        112.61288       72.13399       60.61694
H        112.01066       71.94152       62.85465
H        112.69153       73.57691       62.66131
H        112.58495       70.72202       64.72726
H        115.41512       73.60657       63.23533
H        114.10378       70.18536       66.57636
H        116.93921       73.06403       65.09248
H        117.31447       71.68817       67.09207
N        115.80915       72.38533       60.33731
C        116.85953       73.15300       59.66508
C        116.94609       72.75443       58.19001
O        117.84342       73.22281       57.50276
C        118.22206       72.87390       60.34683
C        118.29980       73.33173       61.80926
C        118.17579       74.82457       61.94029
O        118.98358       75.55763       61.39192
O        117.18620       75.36266       62.67645
H        115.97823       71.37561       60.42335
H        116.65189       74.24456       59.68860
H        119.03800       73.38216       59.78642
H        118.42331       71.78014       60.30837
H        119.28639       73.03130       62.22388
H        117.51588       72.81947       62.40145
N        116.03901       71.89935       57.63614
C        116.09307       71.37988       56.27827
C        114.86262       71.84750       55.52760
O        115.00664       72.49926       54.50266
C        116.20191       69.83275       56.33939
C        117.45118       69.44893       57.15011
C        117.71716       67.98789       57.36167
O        118.66606       67.68207       58.06221
O        116.97768       66.99825       56.82807
H        115.26778       71.55694       58.21002
H        116.99294       71.75937       55.74305
H        116.26868       69.41385       55.31162
H        115.30412       69.41210       56.83706
H        117.36850       69.88841       58.16526
H        118.33736       69.88693       56.65026
N        113.61290       71.59527       56.00727
C        112.41774       72.09075       55.36280
H        111.52277       71.79368       55.95129
H        112.44906       73.20062       55.31241
H        112.33249       71.66987       54.34020
H        113.49775       71.05963       56.87563
Ca       117.94934       65.00656       57.33600
O        116.32687       65.14603       59.67017
H        117.16445       65.67169       59.70156
H        116.47190       64.43742       60.34235
O        116.81136       63.09710       54.89191
H        115.96339       62.99478       54.39078
H        117.51654       62.88126       54.23247
O        116.40659       65.84962       54.17678
H        115.91292       65.51660       53.38628
H        115.97637       66.71409       54.39308

Ca 1.0



