%chk=holoCaM-CaMKII.loop2.water2.frame453.chk
%nprocshared=20
%mem=10GB
%nosave
#b3lyp/svp scf=(tight,noincore,xqc) Test 
#IOP(5/87=12) Density=Current Pop=(MK,readradii) iop(6/33=2) iop(6/42=6)

holoCaM-CaMKII.loop2.water2.frame453 

   -2  1 
C         63.35987       38.40900       49.37076
C         64.24376       37.20009       49.25449
O         64.48437       36.73051       48.15509
H         62.47732       38.17331       50.00078
H         63.93069       39.23545       49.84823
H         63.01526       38.75252       48.37271
N         64.79005       36.66309       50.37530
C         65.74950       35.56143       50.37834
C         65.13699       34.24928       49.89521
O         64.02040       33.94127       50.28952
C         66.26239       35.36281       51.82581
C         67.47268       34.47844       51.94846
O         68.05193       34.05625       50.96238
O         67.96382       34.20156       53.17040
H         64.55280       37.11269       51.27422
H         66.61805       35.85487       49.75205
H         65.43721       34.95408       52.44864
H         66.56069       36.34310       52.25224
N         65.88364       33.35177       49.18140
C         65.45061       31.97536       48.95497
C         66.65854       31.05234       48.79974
O         66.77333       30.36033       47.79820
C         64.48823       31.90753       47.76285
H         66.85095       33.60138       48.93438
H         64.92246       31.60715       49.86267
H         64.99898       32.24533       46.83550
H         64.13266       30.86433       47.61880
H         63.60400       32.55404       47.94022
N         67.59097       30.99029       49.80047
C         68.77311       30.11260       49.78355
C         69.65980       30.17631       51.04626
O         70.48342       29.28304       51.19187
C         69.66148       30.35836       48.53926
C         70.03642       31.80455       48.38874
O         69.72055       32.41277       47.37947
O         70.70618       32.44060       49.36330
H         67.39992       31.57949       50.61537
H         68.39666       29.06678       49.73887
H         69.13200       30.03710       47.62050
H         70.58078       29.73590       48.59840
N         69.59404       31.17102       51.98044
C         70.40947       31.20646       53.18410
C         71.89308       31.29100       52.90234
O         72.63560       30.46065       53.40644
H         68.94727       31.95339       51.87161
H         70.18395       30.31822       53.81385
H         70.13439       32.11124       53.77071
N         72.39695       32.29897       52.13583
C         73.82486       32.53112       51.92777
C         74.24810       33.91313       52.43774
O         75.39695       34.28644       52.24533
C         74.20658       32.28358       50.45273
C         73.62946       33.21163       49.41732
N         73.93085       33.00099       48.11596
O         72.90174       34.14134       49.72922
H         71.73420       32.95074       51.69798
H         74.42331       31.78881       52.50049
H         73.89726       31.24721       50.19244
H         75.31316       32.33790       50.36268
H         74.54354       32.22124       47.83741
H         73.55444       33.60722       47.37996
N         73.39349       34.69203       53.16744
C         73.75929       35.95550       53.78795
C         73.79901       37.15853       52.86462
O         73.99820       38.24528       53.38917
H         72.46224       34.32909       53.41066
H         74.71737       35.84418       54.34150
H         72.97498       36.19368       54.53942
N         73.61460       37.08031       51.51351
C         73.59985       38.26206       50.64668
C         72.34152       38.32477       49.78838
O         71.55868       37.38647       49.76228
C         74.85649       38.26895       49.73421
C         76.13398       38.49426       50.54287
O         74.96681       37.06165       49.02383
H         73.50089       36.15871       51.07399
H         73.60833       39.19484       51.25223
H         74.81898       39.12127       49.01832
H         74.31554       37.10380       48.27643
H         77.00808       38.53170       49.85792
H         76.07501       39.46721       51.07825
H         76.29087       37.68148       51.28108
N         72.14061       39.41934       48.99929
C         71.13050       39.51795       47.95506
C         71.78053       39.08272       46.66233
O         72.82754       39.60737       46.30603
C         70.55393       40.97583       47.86493
C         69.49217       41.17407       48.97911
C         69.94464       41.27931       46.47417
C         68.87815       42.57725       49.03231
H         72.85306       40.16438       49.02303
H         70.28771       38.82085       48.13557
H         71.38753       41.70217       47.99274
H         69.95456       40.96415       49.96655
H         68.66204       40.44836       48.82294
H         69.10146       40.59862       46.24704
H         69.60397       42.33053       46.40003
H         70.71314       41.18366       45.67824
H         68.13938       42.62326       49.85990
H         69.66489       43.33922       49.20824
H         68.32585       42.82186       48.10173
N         71.15183       38.16647       45.87132
C         71.64352       37.76982       44.56311
C         70.78329       38.41131       43.48949
O         69.85869       39.14126       43.81789
C         71.73199       36.23478       44.45508
C         72.73886       35.70363       45.44519
O         72.43888       35.60901       46.75534
O         73.83392       35.33129       45.05659
H         70.23460       37.79656       46.16353
H         72.66548       38.17504       44.39260
H         72.08972       35.98297       43.43574
H         70.74293       35.74409       44.59141
N         71.10007       38.26794       42.17380
C         70.46970       39.05579       41.12107
C         68.95445       38.87205       41.05168
O         68.27293       39.88503       41.11815
C         71.19775       38.84853       39.77265
C         70.73892       39.85198       38.74673
C         71.48509       41.02371       38.53284
C         69.56101       39.64151       38.01109
C         71.05398       41.97455       37.60578
C         69.13920       40.59109       37.07501
C         69.88279       41.75829       36.87584
H         71.88923       37.65364       41.92160
H         70.65690       40.12699       41.37194
H         71.14807       37.82436       39.35845
H         72.27708       39.03098       39.97460
H         72.39100       41.20967       39.09711
H         68.97527       38.74230       38.15790
H         71.62753       42.88023       37.45716
H         68.23406       40.42421       36.50615
H         69.55179       42.49625       36.15726
N         68.33225       37.65720       40.93115
C         66.88158       37.48680       40.86920
C         66.13945       38.18885       41.99254
O         65.16839       38.88541       41.73337
C         66.69233       35.96970       41.00491
C         67.93454       35.44133       40.33318
C         69.00564       36.37545       40.88595
H         66.52263       37.83757       39.87534
H         66.77114       35.66338       42.07323
H         65.72672       35.59351       40.60450
H         68.13718       34.36094       40.48865
H         67.83107       35.63592       39.24062
H         69.31272       36.10039       41.91990
H         69.87022       36.33404       40.20315
N         66.57434       38.05079       43.27423
C         65.92525       38.64482       44.43927
C         65.80439       40.14973       44.29455
O         64.72359       40.67654       44.51757
C         66.72000       38.33493       45.71974
C         66.83969       36.82982       46.02622
C         67.67920       36.59677       47.24649
O         68.07969       35.35524       47.54214
O         68.14952       37.53051       47.87467
H         67.43603       37.50455       43.41455
H         64.90795       38.21133       44.56613
H         66.21816       38.82530       46.58409
H         67.74227       38.76016       45.61681
H         67.35295       36.30876       45.19410
H         65.84340       36.36161       46.14656
N         66.87201       40.89965       43.90282
C         66.82853       42.33882       43.74856
H         65.85973       42.77057       44.07597
H         67.63797       42.79472       44.35573
H         66.98928       42.59953       42.68121
H         67.75550       40.42938       43.67021
Ca        70.28890       35.25917       47.26358
O         70.73664       35.57424       51.80253
H         70.62269       36.01050       52.68320
H         70.33349       34.68054       51.91981
O         68.73707       37.42720       50.77946
H         69.06687       38.19282       50.24760
H         68.38097       37.84005       51.60467

Ca 1.0



