%chk=holoCaM.loop2.water2.frame127.chk
%nprocshared=20
%mem=10GB
%nosave
#b3lyp/svp scf=(tight,noincore,xqc) Test 
#IOP(5/87=12) Density=Current Pop=(MK,readradii) iop(6/33=2) iop(6/42=6)

holoCaM.loop2.water2.frame127 

   -2  1 
C         12.08987       84.48740      -17.73732
C         12.97982       83.29923      -17.50306
O         13.07079       82.83506      -16.37591
H         11.05104       84.23088      -17.43824
H         12.44111       85.35401      -17.14243
H         12.07270       84.77625      -18.81066
N         13.64036       82.72789      -18.54538
C         14.41374       81.49920      -18.42819
C         15.65544       81.67596      -17.55711
O         16.46852       82.53789      -17.86126
C         14.84007       81.03218      -19.83819
C         15.31445       79.61186      -19.85435
O         15.72064       79.12212      -20.89491
O         15.21618       78.84631      -18.75237
H         13.52052       83.14611      -19.48155
H         13.73624       80.72557      -18.00344
H         15.62742       81.70989      -20.23476
H         13.97326       81.07186      -20.53089
N         15.88550       80.85620      -16.48800
C         17.08095       80.92869      -15.64700
C         17.93511       79.65062      -15.69445
O         18.99730       79.65435      -15.08798
C         16.64835       81.22206      -14.20453
H         15.18233       80.14245      -16.26454
H         17.73459       81.76112      -15.98514
H         16.00139       80.40378      -13.81843
H         17.53050       81.32346      -13.53719
H         16.07234       82.17175      -14.16587
N         17.53495       78.51910      -16.35160
C         18.28859       77.25382      -16.35986
C         18.38539       76.58993      -17.74918
O         18.96702       75.51695      -17.83166
C         17.64997       76.27696      -15.34734
C         16.23435       75.92898      -15.66900
O         15.64820       76.42313      -16.76767
O         15.58747       75.23449      -14.90136
H         16.60763       78.52818      -16.77911
H         19.32406       77.42589      -15.99508
H         17.66017       76.75688      -14.34419
H         18.24041       75.33794      -15.28608
N         17.85967       77.15300      -18.87748
C         17.97217       76.57142      -20.21437
C         17.16809       75.29831      -20.50186
O         17.31472       74.79270      -21.60552
H         17.44607       78.08723      -18.81504
H         19.04716       76.37170      -20.41367
H         17.63867       77.32717      -20.95648
N         16.33002       74.70375      -19.60108
C         15.67539       73.40592      -19.84135
C         14.51736       73.40359      -20.86942
O         13.91534       72.35256      -21.04217
C         15.22894       72.77229      -18.49435
C         14.04468       73.41881      -17.83588
N         13.57600       72.95098      -16.65716
O         13.48734       74.35540      -18.37204
H         16.24788       75.12395      -18.67037
H         16.45836       72.70811      -20.21152
H         16.08869       72.79230      -17.78882
H         14.95965       71.70893      -18.66995
H         14.03109       72.15583      -16.18660
H         12.75105       73.38358      -16.21686
N         14.16424       74.49895      -21.60663
C         13.12676       74.48800      -22.64002
C         11.68141       74.62561      -22.16097
O         10.81339       74.68873      -23.02017
H         14.73522       75.34746      -21.53754
H         13.24312       73.58498      -23.27947
H         13.29799       75.36869      -23.29578
N         11.33328       74.69528      -20.84414
C          9.95947       74.88457      -20.35764
C          9.87642       76.08053      -19.40378
O         10.89752       76.68175      -19.10803
C          9.47476       73.59913      -19.63194
C          9.40258       72.38815      -20.57399
O         10.26753       73.31799      -18.50291
H         12.07248       74.60054      -20.14890
H          9.26598       75.07868      -21.20529
H          8.43538       73.75403      -19.27382
H         11.11936       72.91564      -18.81423
H          8.71714       72.60529      -21.42099
H         10.40474       72.13463      -20.97848
H          9.00897       71.50804      -20.02191
N          8.68655       76.43671      -18.82988
C          8.56320       77.44222      -17.77444
C          8.30161       76.69640      -16.47634
O          7.35148       75.93097      -16.38715
C          7.46631       78.50654      -18.08997
C          7.88934       79.35203      -19.32088
C          7.23480       79.42202      -16.86981
C          6.91601       80.47988      -19.68167
H          7.83855       75.90399      -19.07455
H          9.51824       77.99783      -17.64950
H          6.50521       77.98810      -18.30049
H          7.98831       78.68158      -20.20029
H          8.87627       79.82359      -19.12754
H          6.93025       78.83451      -15.98288
H          8.15032       79.99936      -16.63622
H          6.40118       80.12762      -17.04805
H          7.27644       81.00121      -20.59284
H          5.89983       80.07720      -19.86929
H          6.86990       81.24587      -18.87880
N          9.14982       76.87443      -15.42724
C          9.04820       76.16699      -14.15304
C          8.09241       76.91109      -13.26649
O          7.56122       77.92241      -13.69733
C         10.41936       76.12295      -13.43461
C         11.51085       75.64471      -14.32821
O         11.74839       76.36615      -15.42983
O         12.21837       74.69517      -14.03276
H          9.87447       77.59658      -15.52543
H          8.71919       75.11890      -14.33132
H         10.36772       75.48838      -12.52361
H         10.70613       77.15327      -13.12823
N          7.82928       76.50488      -11.99882
C          6.97180       77.29893      -11.14127
C          7.63396       78.64323      -10.79099
O          6.99836       79.65155      -11.06267
C          6.46220       76.48416       -9.93688
C          5.39571       77.23353       -9.17503
C          4.20962       77.64424       -9.81757
C          5.56887       77.52086       -7.81267
C          3.22756       78.33965       -9.11178
C          4.57772       78.21049       -7.10797
C          3.41035       78.62223       -7.75742
H          8.22801       75.61908      -11.65028
H          6.05413       77.51160      -11.73091
H          7.28335       76.18056       -9.26731
H          6.00261       75.54635      -10.31946
H          4.03629       77.43129      -10.86454
H          6.46791       77.20934       -7.29590
H          2.32393       78.65632       -9.61703
H          4.71520       78.42585       -6.05725
H          2.64545       79.15780       -7.21170
N          8.89304       78.77910      -10.23883
C          9.50582       80.07278       -9.91277
C          9.69263       81.04117      -11.07408
O         10.09045       82.17248      -10.83053
C         10.90173       79.70403       -9.39666
C         10.66633       78.34469       -8.79206
C          9.76443       77.69379       -9.83798
H          8.87457       80.53462       -9.12120
H         11.58371       79.53422      -10.26451
H         11.36619       80.46429       -8.73234
H         11.58775       77.77199       -8.55467
H         10.07826       78.49157       -7.85743
H         10.34345       77.35625      -10.72352
H          9.26223       76.84358       -9.35515
N          9.45316       80.66514      -12.35794
C          9.60031       81.54063      -13.50989
C          8.23019       82.08055      -13.86305
O          8.07771       83.28914      -13.96633
C         10.24082       80.76117      -14.67657
C         11.64558       80.24694      -14.31291
C         12.28441       79.43287      -15.40207
O         11.73573       79.26369      -16.47936
O         13.47550       78.85418      -15.16791
H          9.13319       79.70727      -12.54639
H         10.26254       82.40744      -13.28330
H         10.31039       81.41891      -15.57147
H          9.60045       79.88946      -14.92132
H         11.57474       79.59473      -13.41756
H         12.31207       81.10447      -14.07769
N          7.16656       81.23781      -13.97683
C          5.80504       81.66999      -14.20193
H          5.18850       81.38433      -13.32216
H          5.72765       82.76633      -14.34633
H          5.39836       81.15724      -15.09604
H          7.31157       80.23433      -13.84418
Ca        13.49146       76.29965      -16.69454
O         13.37372       77.04284      -20.11513
H         13.21736       77.40581      -21.02295
H         14.35176       76.91658      -20.05448
O         11.96646       79.49323      -19.57997
H         11.67958       80.09005      -20.31472
H         11.14354       79.32548      -19.06022

Ca 1.0



