%chk=holoCaM.loop2.water1.frame307.chk
%nprocshared=20
%mem=10GB
%nosave
#b3lyp/svp scf=(tight,noincore,xqc) Test 
#IOP(5/87=12) Density=Current Pop=(MK,readradii) iop(6/33=2) iop(6/42=6)

holoCaM.loop2.water1.frame307 

   -2  1 
C         15.73578       37.63894       48.16904
C         14.56411       37.56777       47.23430
O         14.35702       38.48775       46.45918
H         16.31094       38.57689       48.01644
H         15.38348       37.59271       49.21970
H         16.41255       36.77826       47.97530
N         13.77282       36.46227       47.23092
C         12.68752       36.25164       46.27861
C         11.50893       37.19593       46.49047
O         11.24971       37.60623       47.61272
C         12.21263       34.78921       46.37112
C         11.16435       34.45815       45.35575
O          9.95903       34.01127       45.75516
O         11.39772       34.59949       44.16692
H         14.01307       35.70175       47.88663
H         13.10284       36.39719       45.25950
H         11.81488       34.59117       47.38992
H         13.08101       34.11817       46.19420
N         10.73540       37.55120       45.42194
C          9.54008       38.38477       45.49551
C          8.35553       37.78892       44.71350
O          7.33250       38.45453       44.62435
C          9.89846       39.76309       44.93596
H         11.03875       37.24621       44.48809
H          9.22444       38.53450       46.55109
H         10.72793       40.19607       45.53676
H         10.22487       39.68916       43.87689
H          9.03074       40.45283       45.00688
N          8.42252       36.56927       44.09542
C          7.38558       36.03797       43.21555
C          7.24507       34.51837       43.36360
O          6.14562       34.07933       43.67344
C          7.59482       36.56180       41.77215
C          9.00168       36.47780       41.23595
O          9.59130       35.29770       41.00837
O          9.60962       37.50256       40.96903
H          9.28559       36.02558       44.15499
H          6.39109       36.44866       43.50846
H          7.33531       37.64442       41.78870
H          6.88242       36.06833       41.07594
N          8.29524       33.65726       43.20412
C          8.19248       32.21241       43.40658
C          8.60592       31.39020       42.19658
O          8.56925       30.17141       42.29160
H          9.22407       34.03364       42.98593
H          7.15849       31.91404       43.68130
H          8.85670       31.93391       44.25259
N          8.99889       31.96979       41.02678
C          9.37198       31.23171       39.81883
C         10.67090       30.41537       39.92022
O         11.04818       29.82445       38.91715
C          9.41829       32.19895       38.61027
C         10.45164       33.29528       38.66612
N         10.52862       34.17357       37.64163
O         11.20907       33.40576       39.61824
H          8.96253       32.99097       40.96183
H          8.55000       30.51982       39.58420
H          8.42185       32.68521       38.52052
H          9.58958       31.61162       37.68315
H          9.89428       34.09668       36.83430
H         11.21692       34.93314       37.64694
N         11.38018       30.27964       41.07936
C         12.55071       29.41986       41.19738
C         13.83774       30.01409       40.65844
O         14.84309       29.32039       40.72560
H         11.03143       30.70348       41.94379
H         12.33915       28.43951       40.71474
H         12.73580       29.21897       42.27430
N         13.91186       31.27452       40.13960
C         15.15556       31.86583       39.64477
C         15.48239       33.16401       40.37559
O         14.70884       33.61511       41.20763
C         15.04856       32.11964       38.11557
C         14.83742       30.82032       37.32551
O         14.04824       33.06471       37.82040
H         13.05852       31.84282       40.08545
H         16.01191       31.17638       39.81169
H         16.00856       32.53414       37.74483
H         13.16825       32.61197       37.87796
H         15.67080       30.11393       37.52732
H         13.87904       30.33438       37.60453
H         14.82022       31.04343       36.23764
N         16.61363       33.84763       40.05010
C         16.94492       35.17868       40.53726
C         16.63718       36.13760       39.40823
O         17.18395       35.99101       38.32268
C         18.44171       35.23859       40.99315
C         18.66592       34.53255       42.35901
C         19.01948       36.67055       41.02616
C         18.11068       35.29287       43.57699
H         17.22890       33.45521       39.32179
H         16.30156       35.47342       41.38695
H         19.04152       34.69591       40.22843
H         19.75977       34.41957       42.52481
H         18.22362       33.51414       42.32743
H         18.44366       37.33275       41.70322
H         20.08279       36.64507       41.34924
H         19.00404       37.12282       40.01266
H         17.01774       35.45132       43.50754
H         18.31795       34.71629       44.50222
H         18.61090       36.27799       43.69433
N         15.77990       37.17517       39.62303
C         15.49240       38.20080       38.63673
C         16.27838       39.44697       38.99031
O         16.99676       39.43609       39.97828
C         13.97127       38.44939       38.53166
C         13.27162       37.27177       37.89432
O         13.03336       36.12683       38.56438
O         12.87888       37.36587       36.74303
H         15.38830       37.31141       40.56526
H         15.86839       37.90167       37.63334
H         13.82026       39.31861       37.85866
H         13.51678       38.71375       39.51331
N         16.27749       40.53211       38.16981
C         17.16808       41.66466       38.38210
C         16.93688       42.38594       39.70763
O         17.91594       42.54393       40.42340
C         17.13777       42.64193       37.18820
C         18.24432       43.67336       37.29108
C         19.59484       43.26866       37.33367
C         17.94443       45.04468       37.34291
C         20.61681       44.21418       37.44135
C         18.97338       45.98873       37.44357
C         20.30704       45.57357       37.49649
H         15.69238       40.51304       37.32006
H         18.19706       41.24421       38.40197
H         16.14032       43.12302       37.11713
H         17.30307       42.07081       36.24852
H         19.86468       42.22165       37.28699
H         16.91735       45.38413       37.30599
H         21.64958       43.89088       37.48136
H         18.73768       47.04388       37.48235
H         21.10152       46.30411       37.57819
N         15.71874       42.85379       40.13715
C         15.55934       43.58791       41.38789
C         15.86005       42.73680       42.61026
O         16.03921       43.30035       43.68138
C         14.10415       44.06690       41.34590
C         13.43130       42.95497       40.56567
C         14.45032       42.68446       39.45876
H         16.23924       44.46836       41.40859
H         13.65287       44.31416       42.33138
H         14.05183       44.97155       40.69923
H         13.38853       42.05978       41.22894
H         12.40396       43.17053       40.20344
H         14.26919       41.65756       39.08628
H         14.37933       43.42833       38.63659
N         15.92398       41.38081       42.53637
C         16.29826       40.54220       43.66511
C         17.80064       40.61119       43.85360
O         18.25303       40.94676       44.93807
C         15.85361       39.09249       43.42373
C         14.32206       39.00409       43.27556
C         13.87515       37.61287       42.97155
O         14.67068       36.68993       42.90855
O         12.60822       37.39875       42.60455
H         15.68813       40.92128       41.64582
H         15.76937       40.87548       44.58681
H         16.17148       38.45847       44.28033
H         16.33471       38.69927       42.50104
H         13.99942       39.63108       42.41764
H         13.80109       39.37763       44.18024
N         18.63205       40.32065       42.81145
C         20.07642       40.36752       42.87819
H         20.48670       39.37618       42.59078
H         20.44913       41.12583       42.15667
H         20.44454       40.62710       43.89116
H         18.22547       40.06868       41.90440
Ca        12.64763       36.16993       40.76092
O         12.57600       32.54141       42.77330
H         12.08370       32.07502       43.49412
H         13.29176       33.03302       43.24684

Ca 1.0



