%chk=holoCaM.loop2.water1.frame353.chk
%nprocshared=20
%mem=10GB
%nosave
#b3lyp/svp scf=(tight,noincore,xqc) Test 
#IOP(5/87=12) Density=Current Pop=(MK,readradii) iop(6/33=2) iop(6/42=6)

holoCaM.loop2.water1.frame353 

   -2  1 
C          3.17400       23.12050       92.19315
C          2.31390       22.28137       93.09711
O          2.07184       21.12673       92.77572
H          4.17052       22.63872       92.08557
H          2.70644       23.21037       91.19192
H          3.33096       24.13849       92.60887
N          1.86311       22.78145       94.28232
C          1.16566       21.96259       95.26665
C         -0.26097       21.63169       94.85439
O         -0.96453       22.52712       94.40781
C          1.13901       22.66420       96.64533
C          0.84901       21.67731       97.75039
O          1.30354       20.41676       97.59076
O          0.49155       22.06782       98.84785
H          2.12939       23.74476       94.53892
H          1.77198       21.04338       95.38315
H          0.42103       23.51418       96.64446
H          2.14810       23.07270       96.86671
N         -0.78119       20.38617       95.07262
C         -2.16105       20.01971       94.77003
C         -2.96694       19.59407       96.00063
O         -4.16495       19.40286       95.84060
C         -2.15480       18.87226       93.75379
H         -0.17729       19.66701       95.48093
H         -2.69167       20.88527       94.31855
H         -1.60721       19.17532       92.83680
H         -1.65110       17.97937       94.18726
H         -3.19057       18.58969       93.46864
N         -2.40412       19.36354       97.22817
C         -3.16942       18.84279       98.36696
C         -2.94814       19.61620       99.67474
O         -3.54645       19.23786      100.67274
C         -2.90485       17.32687       98.49789
C         -1.45620       16.96558       98.61769
O         -0.75007       17.37207       99.67735
O         -0.91715       16.28226       97.76155
H         -1.38451       19.44533       97.33986
H         -4.26140       18.92006       98.17002
H         -3.30311       16.83779       97.58155
H         -3.46249       16.91226       99.36541
N         -2.17178       20.73692       99.74404
C         -2.05165       21.56985      100.93982
C         -1.29570       20.96846      102.11759
O         -1.19696       21.65224      103.12715
H         -1.72602       21.08355       98.88742
H         -3.07085       21.86395      101.27273
H         -1.51210       22.50249      100.66626
N         -0.73127       19.72730      102.08840
C         -0.02308       19.14217      103.23244
C          1.31782       19.82393      103.56009
O          1.94557       19.41375      104.52691
C          0.16548       17.61692      103.03132
C          1.06914       17.22713      101.89165
N          1.28121       15.92318      101.61191
O          1.60371       18.07962      101.20557
H         -0.85560       19.15916      101.24646
H         -0.68626       19.23714      104.12180
H         -0.83408       17.16129      102.85477
H          0.57864       17.17368      103.96292
H          0.82823       15.18239      102.16575
H          1.89687       15.65756      100.83235
N          1.81154       20.87238      102.83316
C          3.02407       21.60162      103.19203
C          4.32537       20.99633      102.67899
O          5.35944       21.60468      102.91411
H          1.26021       21.25346      102.05473
H          3.06192       21.75222      104.29420
H          2.95642       22.61446      102.74070
N          4.36951       19.82400      101.98193
C          5.59987       19.19973      101.49024
C          5.50833       18.85396      100.00788
O          4.53183       18.24159       99.59783
C          5.87561       17.90222      102.28025
C          6.18981       18.20358      103.74552
O          4.77687       17.02682      102.21869
H          3.49538       19.31503      101.83083
H          6.48285       19.85929      101.64644
H          6.78735       17.41039      101.86265
H          4.87965       16.48208      101.39562
H          5.32509       18.68810      104.24533
H          6.42773       17.25907      104.27739
H          7.07191       18.87675      103.81569
N          6.54314       19.13650       99.15957
C          6.56901       18.68654       97.76497
C          6.55269       17.15620       97.72281
O          7.49222       16.53264       98.19722
C          7.80462       19.27401       96.99991
C          7.67555       20.82194       96.91926
C          7.93395       18.67300       95.58496
C          8.82747       21.52155       96.19326
H          7.35719       19.64667       99.53429
H          5.66347       19.07237       97.25931
H          8.73131       19.00419       97.55455
H          7.63182       21.24355       97.94432
H          6.72916       21.08936       96.39915
H          8.85208       19.02928       95.07702
H          8.03921       17.57203       95.62881
H          7.05661       18.93974       94.96569
H          8.66662       22.61973       96.22775
H          9.79649       21.28438       96.67914
H          8.86581       21.23539       95.12224
N          5.49223       16.49402       97.17144
C          5.40122       15.03273       97.07573
C          6.22665       14.55241       95.88325
O          6.79801       15.38604       95.20578
C          3.92961       14.57011       96.90155
C          2.98298       15.16075       97.91918
O          2.69962       16.47493       97.81922
O          2.40373       14.45381       98.72713
H          4.71894       17.05813       96.80239
H          5.76732       14.58575       98.02669
H          3.89968       13.46056       96.96680
H          3.54857       14.86793       95.90081
N          6.32905       13.23209       95.54128
C          7.07873       12.80699       94.35548
C          6.46295       13.34936       93.06089
O          7.20360       14.00568       92.33794
C          7.28547       11.27327       94.30706
C          8.03285       10.84743       93.05586
C          9.31347       11.35840       92.76802
C          7.44486        9.94059       92.15469
C          9.98269       10.97732       91.60080
C          8.12210        9.55717       90.99210
C          9.38827       10.07717       90.71408
H          5.88082       12.52098       96.13587
H          8.10521       13.22677       94.44438
H          6.32464       10.73645       94.36597
H          7.86965       10.96483       95.20017
H          9.79465       12.05785       93.43834
H          6.46162        9.53049       92.34808
H         10.96290       11.38178       91.38282
H          7.66377        8.85850       90.30397
H          9.90890        9.78303       89.81157
N          5.15944       13.15108       92.67218
C          4.57784       13.69673       91.44686
C          4.89361       15.16288       91.23781
O          5.28421       15.55662       90.14967
C          3.06492       13.53803       91.66471
C          3.00333       12.25923       92.45568
C          4.14854       12.45028       93.44595
H          4.91591       13.08778       90.57813
H          2.68256       14.33460       92.34471
H          2.46012       13.56033       90.73299
H          2.02128       12.03335       92.92340
H          3.27045       11.43016       91.76108
H          3.85415       13.09048       94.30319
H          4.44375       11.44912       93.79342
N          4.74889       16.01893       92.28224
C          4.97399       17.45571       92.21081
C          6.40378       17.74443       91.79148
O          6.60369       18.43294       90.80008
C          4.63123       18.10274       93.57170
C          3.15197       17.86039       93.93786
C          2.75610       18.45023       95.24891
O          3.59948       19.21501       95.96561
O          1.64332       18.21392       95.68089
H          4.47408       15.60484       93.18320
H          4.28549       17.89982       91.45741
H          4.81903       19.19767       93.51803
H          5.27253       17.66381       94.36572
H          2.94506       16.77647       94.02478
H          2.48927       18.27602       93.14970
N          7.45084       17.20921       92.47242
C          8.82634       17.40288       92.07290
H          9.49885       16.83750       92.75390
H          8.97627       17.02280       91.03952
H          9.08985       18.47949       92.12031
H          7.26668       16.61490       93.28491
Ca         1.62487       18.36150       98.48416
O          3.04234       21.21464       99.83236
H          2.71750       22.05551      100.24133
H          3.54930       21.50668       99.03499

Ca 1.0



