%chk=holoCaM-CaMKII.loop3.water2.frame459.chk
%nprocshared=20
%mem=10GB
%nosave
#b3lyp/svp scf=(tight,noincore,xqc) Test 
#IOP(5/87=12) Density=Current Pop=(MK,readradii) iop(6/33=2) iop(6/42=6)

holoCaM-CaMKII.loop3.water2.frame459 

   0  1 
C         66.14705       68.08967       33.57385
C         66.45401       68.65213       32.22257
O         67.58971       68.51574       31.78856
H         65.08510       68.25174       33.84785
H         66.35414       66.99844       33.56648
H         66.79700       68.57633       34.33099
N         65.49727       69.30653       31.49756
C         65.75590       69.83763       30.16692
C         65.71336       71.35529       30.17522
O         65.21491       71.95559       31.11776
C         64.76685       69.20747       29.15789
C         65.18494       69.43647       27.73835
O         66.28172       69.04578       27.38156
O         64.39903       70.04984       26.83532
H         64.55614       69.43267       31.90002
H         66.78911       69.55748       29.86961
H         63.73571       69.57809       29.34158
H         64.77144       68.10534       29.30405
N         66.34681       72.03769       29.18598
C         66.48347       73.48730       29.15448
C         65.15728       74.13770       28.80057
O         64.73482       75.02390       29.53018
C         67.64405       73.84112       28.20216
C         67.98741       75.33438       28.10164
C         69.31575       75.49925       27.34042
C         69.67221       76.96894       27.09103
N         70.97017       77.07907       26.42150
H         66.83194       71.48808       28.45978
H         66.82049       73.85025       30.15310
H         67.44037       73.45129       27.18915
H         68.54046       73.31399       28.60449
H         68.10739       75.77527       29.11596
H         67.16253       75.86013       27.57443
H         69.25277       74.98243       26.35860
H         70.12793       75.02502       27.93734
H         69.71133       77.52244       28.05502
H         68.88688       77.42764       26.45031
H         71.16955       78.08467       26.21654
H         71.72576       76.70610       27.04188
H         70.96319       76.54597       25.52134
N         64.42833       73.72274       27.71981
C         63.14821       74.32668       27.33683
C         61.95301       73.38567       27.47711
O         60.84054       73.84105       27.24619
C         63.23576       74.88051       25.89827
C         63.41094       73.83795       24.81772
O         63.48635       74.19608       23.65419
O         63.46351       72.52187       25.10215
H         64.79903       72.94457       27.15573
H         62.93080       75.18979       28.00381
H         64.08491       75.59532       25.84721
H         62.30301       75.44294       25.67357
N         62.08157       72.08075       27.85464
C         60.94055       71.19280       28.01696
C         60.17164       70.99165       26.72875
O         59.00370       71.35416       26.69043
H         63.01114       71.70105       28.06986
H         60.26770       71.61924       28.79459
H         61.28466       70.19982       28.37744
N         60.74962       70.39321       25.64356
C         60.02847       70.15457       24.39019
C         59.85597       68.67239       24.06190
O         59.21243       68.38749       23.06111
C         60.70298       70.89529       23.21198
C         62.06964       70.38305       22.80774
N         62.68453       70.91039       21.72530
O         62.61730       69.48462       23.42823
H         61.73189       70.09127       25.72011
H         58.99874       70.56771       24.46920
H         60.77406       71.97848       23.45147
H         60.04052       70.79146       22.32435
H         62.23560       71.65984       21.17880
H         63.60436       70.55766       21.42270
N         60.37527       67.67734       24.84127
C         60.17625       66.26052       24.55607
C         61.46622       65.48139       24.38000
O         61.37392       64.26927       24.24086
H         60.90317       67.91482       25.69276
H         59.55625       66.10268       23.64825
H         59.62799       65.82128       25.41663
N         62.69663       66.07210       24.40540
C         63.94425       65.30349       24.35695
C         65.16246       66.16263       24.66655
O         65.04882       67.37836       24.74247
C         64.16403       64.57133       23.00635
C         64.34779       65.51390       21.83705
C         65.61957       65.67929       21.25821
C         63.25868       66.22574       21.30722
C         65.79825       66.54659       20.17671
C         63.43795       67.08531       20.21869
C         64.71004       67.25085       19.65174
O         64.89873       68.08194       18.60697
H         62.74137       67.09080       24.53781
H         63.88750       64.54814       25.17240
H         63.34973       63.85468       22.77612
H         65.07988       63.95170       23.11762
H         66.47786       65.14815       21.65141
H         62.26798       66.10670       21.72402
H         66.78505       66.67427       19.74904
H         62.58748       67.62093       19.81641
H         64.17308       68.58709       18.21338
N         66.36838       65.57163       24.90920
C         67.56309       66.32706       25.27065
C         68.76110       65.89952       24.43288
O         68.80567       64.76438       23.97648
C         67.80783       66.18902       26.80439
C         68.84855       67.21388       27.31060
C         68.17984       64.75011       27.21200
C         68.90020       67.31672       28.83462
H         66.41631       64.54149       24.91307
H         67.37699       67.40552       25.06742
H         66.84137       66.44824       27.29224
H         68.55493       68.21435       26.94014
H         69.85854       66.98241       26.92329
H         69.15527       64.45781       26.76886
H         68.24964       64.65305       28.31304
H         67.40503       64.02997       26.88279
H         67.89004       67.54303       29.23356
H         69.27393       66.38177       29.29563
H         69.58151       68.14181       29.12459
N         69.78761       66.76725       24.21764
C         71.02740       66.42092       23.52603
C         72.20744       66.67416       24.45047
O         71.99232       67.06277       25.58478
C         71.14427       67.25545       22.24010
O         71.20935       68.62835       22.52835
H         69.69714       67.72917       24.58119
H         71.03823       65.34830       23.23244
H         70.28537       67.02658       21.56632
H         72.05575       66.97291       21.67290
H         70.29372       68.99400       22.41541
N         73.49149       66.48837       24.04087
C         74.63725       66.83038       24.88107
C         74.66927       68.32564       25.17298
O         74.80334       68.69745       26.33044
C         75.94527       66.40983       24.20676
H         73.66107       66.11274       23.09539
H         74.58356       66.26264       25.83854
H         76.08455       66.92993       23.23658
H         76.80441       66.64631       24.87233
H         75.93901       65.31213       24.03366
N         74.54081       69.24083       24.16390
C         74.62213       70.69194       24.36442
C         73.55993       71.27561       25.29822
O         73.66344       72.45286       25.61481
C         74.54439       71.41315       23.01300
H         74.41631       68.88276       23.20415
H         75.61675       70.90718       24.81376
H         73.55938       71.22484       22.53294
H         74.67511       72.50869       23.14512
H         75.34828       71.04853       22.33918
N         72.54366       70.52642       25.80707
C         71.59021       71.01185       26.79795
C         71.87954       70.35748       28.14350
O         71.89649       71.06319       29.14269
C         70.14199       70.77407       26.33123
C         69.77195       71.65798       25.12462
C         68.30626       71.54465       24.81510
O         67.57982       72.51561       24.94934
O         67.76381       70.37348       24.44324
H         72.45291       69.54775       25.51544
H         71.69214       72.10751       26.96775
H         69.46353       71.04734       27.17144
H         69.99011       69.70411       26.08594
H         70.37202       71.38774       24.23131
H         69.98532       72.71725       25.39003
N         72.20068       69.03855       28.24610
C         72.58020       68.42043       29.49736
H         73.45505       68.95014       29.93227
H         71.73331       68.44809       30.21152
H         72.86996       67.36144       29.32073
H         72.22985       68.45437       27.40995
Ca        65.57299       70.20262       24.92844
O         66.01833       69.12548       22.28468
H         66.35089       69.11422       21.35326
H         65.29260       68.45342       22.30581
O         65.89453       72.10248       22.45496
H         64.92817       72.19999       22.64083
H         66.03246       72.57874       21.59887

Ca 1.0



