%chk=holoCaM-CaMKII.loop2.water2.frame267.chk
%nprocshared=20
%mem=10GB
%nosave
#b3lyp/svp scf=(tight,noincore,xqc) Test 
#IOP(5/87=12) Density=Current Pop=(MK,readradii) iop(6/33=2) iop(6/42=6)

holoCaM-CaMKII.loop2.water2.frame267 

   -2  1 
C         46.56325       40.17231       39.02757
C         47.44560       41.38259       39.13481
O         47.96989       41.66455       40.20235
H         45.55046       40.47191       38.68588
H         46.99728       39.47148       38.28065
H         46.48193       39.64449       40.00014
N         47.67961       42.12718       38.02444
C         48.60435       43.25098       37.97668
C         48.15704       44.44027       38.82093
O         47.05922       44.94046       38.62093
C         48.78207       43.68555       36.51271
C         49.78517       44.78193       36.41314
O         49.48984       45.84312       35.88817
O         51.00511       44.60404       36.94811
H         47.22497       41.82620       37.14706
H         49.59845       42.89308       38.32901
H         47.81316       44.01233       36.07518
H         49.15988       42.82054       35.92680
N         49.01585       44.98473       39.73473
C         48.73074       46.17288       40.53563
C         49.72788       47.31804       40.28815
O         49.58811       48.34149       40.94452
C         48.76866       45.77198       42.01583
H         49.93228       44.53596       39.86678
H         47.71339       46.56100       40.31259
H         49.77874       45.39799       42.29270
H         48.51923       46.63749       42.66648
H         48.02745       44.96794       42.21077
N         50.76338       47.22560       39.39488
C         51.83059       48.23689       39.30436
C         52.48088       48.39680       37.90970
O         53.34143       49.25646       37.77687
C         52.92403       47.91413       40.34887
C         53.58649       46.58219       40.10392
O         54.54758       46.24538       40.77609
O         53.13981       45.77572       39.12096
H         50.88018       46.33693       38.90195
H         51.40718       49.23416       39.55985
H         52.49291       47.92260       41.37290
H         53.69904       48.71158       40.30447
N         52.12319       47.64530       36.83026
C         52.64482       47.83804       35.48067
C         54.09280       47.42895       35.20855
O         54.51353       47.65084       34.08148
H         51.36575       46.97382       36.93256
H         52.51038       48.90700       35.20645
H         52.02139       47.24105       34.77888
N         54.92212       46.84475       36.12732
C         56.33146       46.53447       35.82717
C         56.58678       45.40236       34.80704
O         57.75247       45.08303       34.61053
C         57.17034       46.28825       37.11109
C         56.77271       45.11308       38.00364
N         57.86741       44.74140       38.88830
O         56.32228       44.00234       37.30327
H         54.57225       46.69227       37.08292
H         56.79361       47.45076       35.39698
H         57.15219       47.19817       37.74853
H         58.22714       46.14315       36.79761
H         57.97390       45.48513       39.61312
H         57.61845       43.85357       39.37251
N         55.61008       44.77888       34.08478
C         55.91475       43.74134       33.10184
C         56.32181       42.40539       33.70914
O         56.89442       41.59962       32.99034
H         54.64008       45.09505       34.15534
H         56.71818       44.11483       32.42776
H         55.02887       43.54891       32.45977
N         55.95608       42.05314       34.97615
C         56.26171       40.76194       35.60259
C         55.34334       40.49414       36.78352
O         55.11290       41.37834       37.59498
C         57.71267       40.66809       36.15061
C         58.78870       40.52245       35.08240
O         58.01610       41.77395       36.96192
H         55.35703       42.70861       35.48990
H         56.09213       39.93747       34.87386
H         57.79681       39.72497       36.74654
H         57.64640       41.58963       37.86443
H         58.58215       39.62534       34.45900
H         58.85925       41.42452       34.44778
H         59.77187       40.37604       35.57964
N         54.86293       39.23728       36.99076
C         54.12204       38.87038       38.19131
C         55.08669       38.91100       39.36774
O         56.08573       38.20394       39.33252
C         53.48060       37.45502       38.04791
C         52.54424       37.41281       36.80761
C         52.69546       37.09659       39.32939
C         51.98405       36.02251       36.50618
H         55.09520       38.50396       36.30379
H         53.28472       39.58775       38.33647
H         54.29339       36.70750       37.90516
H         53.10362       37.71225       35.89877
H         51.70669       38.13201       36.93793
H         51.87529       37.82726       39.50142
H         52.26316       36.07884       39.27510
H         53.36075       37.09807       40.21397
H         51.37854       36.06760       35.57650
H         52.81507       35.30155       36.35073
H         51.32443       35.65964       37.31806
N         54.83892       39.69376       40.45468
C         55.70725       39.70971       41.62910
C         55.19665       38.72522       42.65896
O         54.17014       38.09838       42.43118
C         55.75703       41.12210       42.24779
C         56.29259       42.15665       41.31108
O         55.70232       42.41643       40.27653
O         57.41036       42.83452       41.63405
H         53.95687       40.22517       40.48849
H         56.73958       39.39801       41.35328
H         56.41818       41.10763       43.13960
H         54.73706       41.43019       42.56794
N         55.87921       38.51104       43.81908
C         55.38587       37.61530       44.85345
C         54.08660       38.14938       45.45836
O         53.16432       37.36104       45.57389
C         56.46613       37.29610       45.91053
C         56.00670       36.22871       46.88178
C         55.62838       34.95107       46.42079
C         55.95949       36.49557       48.26033
C         55.20014       33.97130       47.31970
C         55.53689       35.50827       49.15685
C         55.15452       34.24908       48.68681
H         56.78353       38.98798       43.96297
H         55.16953       36.64137       44.36207
H         56.77357       38.20764       46.45528
H         57.36775       36.90883       45.38727
H         55.66058       34.70607       45.36728
H         56.25117       37.46546       48.64266
H         54.90518       32.99544       46.95490
H         55.50523       35.71955       50.21743
H         54.82509       33.48733       49.38140
N         53.89207       39.46285       45.82418
C         52.61701       39.97692       46.32569
C         51.44796       39.89412       45.34058
O         50.33966       40.23405       45.73441
C         52.91267       41.45176       46.63580
C         54.39166       41.41749       46.96093
C         54.90532       40.49245       45.86594
H         52.38692       39.41406       47.25724
H         52.82080       42.05201       45.69929
H         52.25409       41.90578       47.40658
H         54.88565       42.41195       46.98967
H         54.52532       40.91339       47.94528
H         54.90065       41.03298       44.89931
H         55.92220       40.14360       46.11327
N         51.61655       39.47915       44.04942
C         50.54715       39.37427       43.05920
C         50.31504       37.92646       42.63034
O         49.36674       37.68932       41.89658
C         50.92380       40.19403       41.80604
C         51.15841       41.68344       42.10396
C         51.69137       42.43998       40.91490
O         51.99485       43.74355       41.04960
O         51.88445       41.88917       39.84226
H         52.55887       39.24133       43.73094
H         49.59052       39.74846       43.48607
H         50.13174       40.10069       41.03027
H         51.86020       39.75896       41.39430
H         51.91061       41.78665       42.91291
H         50.20520       42.14819       42.43689
N         51.13913       36.91180       43.02629
C         50.96127       35.52546       42.65318
H         50.05686       35.36402       42.03312
H         51.85238       35.18497       42.08418
H         50.87508       34.91225       43.57537
H         51.95409       37.10775       43.60706
Ca        54.31757       44.08536       38.29740
O         51.75569       41.53337       36.75964
H         51.41046       40.89651       37.43288
H         51.21666       41.35175       35.94973
O         53.09448       43.76756       35.54402
H         52.80315       44.68482       35.31244
H         52.96288       43.24870       34.71234

Ca 1.0



