%chk=holoCaM-CaMKII.loop3.water1.frame316.chk
%nprocshared=20
%mem=10GB
%nosave
#b3lyp/svp scf=(tight,noincore,xqc) Test 
#IOP(5/87=12) Density=Current Pop=(MK,readradii) iop(6/33=2) iop(6/42=6)

holoCaM-CaMKII.loop3.water1.frame316 

   0  1 
C         47.84018       30.03889       57.24544
C         46.70169       30.99354       57.02905
O         45.66109       30.57383       56.54452
H         48.72152       30.55147       57.68670
H         47.52285       29.22915       57.93477
H         48.14390       29.59606       56.27386
N         46.83037       32.30561       57.36915
C         45.77005       33.28959       57.18454
C         45.41973       33.41464       55.70689
O         46.30989       33.58842       54.88645
C         46.20253       34.63536       57.78893
C         45.10579       35.65497       57.73533
O         45.32449       36.82756       57.12131
O         44.02697       35.43884       58.26527
H         47.72234       32.61496       57.78653
H         44.87716       32.95527       57.76107
H         47.10302       35.02051       57.26283
H         46.46086       34.47881       58.85916
N         44.12084       33.31018       55.31237
C         43.67042       33.23824       53.92631
C         42.85726       34.48726       53.58955
O         43.25546       35.23583       52.70863
C         42.88148       31.90994       53.78968
C         42.43481       31.48856       52.38504
C         41.69375       30.13654       52.48885
C         41.22452       29.60391       51.13028
N         40.54148       28.31650       51.28653
H         43.40941       33.23939       56.04853
H         44.54658       33.19404       53.24214
H         41.98223       31.95381       54.43076
H         43.53325       31.09698       54.18236
H         43.32847       31.37460       51.73415
H         41.76004       32.25670       51.95063
H         40.80471       30.25694       53.14774
H         42.36893       29.38082       52.94921
H         42.10019       29.47208       50.45709
H         40.52709       30.33627       50.66845
H         41.20504       27.59839       51.65939
H         39.72888       28.41092       51.93882
H         40.18886       27.99612       50.35583
N         41.71641       34.78417       54.27495
C         40.89199       35.97641       54.06246
C         41.54928       37.29662       54.49905
O         40.92470       38.33022       54.29996
C         39.50496       35.79686       54.73803
C         39.56245       35.40398       56.18936
O         40.14490       36.09750       56.99858
O         38.97260       34.26510       56.60012
H         41.39619       34.09972       54.96163
H         40.68188       36.06984       52.97398
H         38.95804       34.99112       54.20233
H         38.90942       36.72897       54.62765
N         42.79868       37.37048       55.04576
C         43.46434       38.63909       55.33448
C         42.96841       39.38394       56.56273
O         43.55187       40.41558       56.86626
H         43.34927       36.51217       55.17843
H         43.41370       39.29892       54.44132
H         44.53877       38.43880       55.51053
N         41.92652       38.95029       57.32782
C         41.47290       39.67179       58.51572
C         42.45752       39.57858       59.68855
O         42.18548       40.20951       60.70130
C         40.03105       39.25171       58.89874
C         39.89641       37.78180       59.25396
N         38.50070       37.40601       59.45777
O         40.61872       37.53361       60.40426
H         41.41338       38.11491       57.03465
H         41.38078       40.74784       58.25138
H         39.36999       39.45342       58.02945
H         39.66800       39.86481       59.75395
H         38.13431       37.86872       60.32068
H         38.45830       36.37125       59.60421
N         43.61128       38.83836       59.64414
C         44.60630       38.88955       60.70792
C         44.54006       37.74010       61.69244
O         45.24252       37.82656       62.69034
H         43.84931       38.29221       58.80614
H         44.49808       39.83888       61.27544
H         45.62596       38.93175       60.26360
N         43.77403       36.62391       61.49295
C         43.76235       35.51511       62.45003
C         43.33408       34.15692       61.80147
O         41.96188       33.93950       61.70667
C         43.01686       35.89990       63.76126
C         41.60516       36.41839       63.56473
C         40.50076       35.55035       63.60103
C         41.37903       37.79657       63.38151
C         39.20283       36.04432       63.42916
C         40.07963       38.28973       63.21930
C         38.98839       37.41626       63.23626
O         37.74264       37.90532       63.06923
H         43.26819       36.53129       60.60596
H         44.82800       35.32587       62.71424
H         43.58869       36.70681       64.26811
H         43.02357       35.06397       64.49144
H         40.64088       34.48984       63.76187
H         42.20778       38.49307       63.36373
H         38.36413       35.35999       63.44977
H         39.92140       39.35161       63.07466
H         36.96072       37.33475       63.06643
N         43.94234       33.03331       62.51399
C         43.71958       31.72358       61.86733
C         42.42033       31.08171       62.35965
O         42.15609       31.11289       63.55415
C         44.92487       30.79566       62.17095
C         46.25442       31.49166       61.77145
C         44.76244       29.45486       61.42045
C         47.49689       30.70086       62.17888
H         43.70633       33.02607       63.53318
H         43.69447       31.84829       60.75824
H         44.94766       30.60221       63.26650
H         46.33118       32.46929       62.29385
H         46.27574       31.68624       60.67611
H         44.73577       29.62520       60.32123
H         45.58308       28.75196       61.65579
H         43.82826       28.94174       61.71990
H         47.56071       29.73369       61.64340
H         48.40436       31.28722       61.92510
H         47.48740       30.51941       63.27513
N         41.60844       30.40543       61.49649
C         40.38326       29.72059       61.90214
C         40.50271       28.21579       61.70678
O         41.51268       27.73924       61.20636
C         39.19025       30.27806       61.10695
O         39.35829       30.03163       59.73980
H         41.89659       30.33395       60.51395
H         40.18300       29.89632       62.98078
H         39.12419       31.36940       61.28551
H         38.24572       29.80432       61.45201
H         38.53668       30.35974       59.29019
N         39.48273       27.40252       62.10062
C         39.48059       25.95203       61.93555
C         39.55732       25.57547       60.47137
O         40.38874       24.75714       60.10838
C         38.20607       25.35642       62.54316
H         38.66028       27.84144       62.54337
H         40.34275       25.50950       62.48368
H         37.29937       25.75944       62.04326
H         38.21426       24.25040       62.43666
H         38.15581       25.60206       63.62534
N         38.71889       26.15958       59.57134
C         38.74719       25.88353       58.13973
C         40.11484       26.17268       57.54820
O         40.67199       25.31509       56.87703
C         37.69830       26.75113       57.42569
H         38.04435       26.85716       59.92332
H         38.48299       24.81799       57.95988
H         36.68559       26.53388       57.82670
H         37.90781       27.83334       57.57434
H         37.69657       26.53792       56.33539
N         40.70263       27.38322       57.75039
C         41.96142       27.79115       57.12589
C         43.15245       26.96594       57.60317
O         44.21186       27.07408       57.00056
C         42.24271       29.28302       57.42058
C         41.10544       30.20584       56.93960
C         41.27286       31.60777       57.44459
O         41.24208       32.53767       56.67031
O         41.36800       31.86451       58.75946
H         40.19981       28.04563       58.35386
H         41.85129       27.65720       56.02605
H         43.19233       29.60352       56.93939
H         42.36252       29.38241       58.51861
H         40.12606       29.87698       57.32129
H         41.04420       30.17922       55.83010
N         43.07504       26.15179       58.69289
C         44.19590       25.36715       59.16076
H         45.05121       26.03135       59.40648
H         43.90704       24.80873       60.07760
H         44.49818       24.63623       58.38160
H         42.20561       26.09772       59.23221
Ca        41.13396       35.38620       60.25141
O         38.87025       33.69653       60.28991
H         39.06440       33.82820       61.25245
H         37.88299       33.69473       60.23358

Ca 1.0



