%chk=holoCaM.loop2.water3.frame386.chk
%nprocshared=20
%mem=10GB
%nosave
#b3lyp/svp scf=(tight,noincore,xqc) Test 
#IOP(5/87=12) Density=Current Pop=(MK,readradii) iop(6/33=2) iop(6/42=6)

holoCaM.loop2.water3.frame386 

   -2  1 
C        105.86004       87.20835       94.63450
C        105.81370       87.81502       96.00087
O        105.56591       87.10004       96.95895
H        106.88332       87.32491       94.22036
H        105.61227       86.12617       94.67821
H        105.13194       87.72002       93.97203
N        106.04170       89.14734       96.15957
C        106.06751       89.81145       97.45296
C        104.92245       90.80408       97.53119
O        104.83721       91.69917       96.70169
C        107.42904       90.50056       97.61478
C        107.68072       91.09366       98.96963
O        106.82207       90.94680       99.99657
O        108.74976       91.63844       99.17229
H        106.21758       89.72006       95.31912
H        105.96877       89.06417       98.27121
H        107.54309       91.28004       96.83724
H        108.22867       89.74253       97.45461
N        103.99285       90.68584       98.51752
C        102.84635       91.57240       98.67913
C        103.26162       93.01592       98.90520
O        102.65053       93.89466       98.31359
C        101.97843       91.09571       99.84831
H        104.10059       89.91159       99.18590
H        102.20914       91.51616       97.76839
H        101.64264       90.05208       99.66211
H        102.54394       91.12521      100.80315
H        101.07551       91.73636       99.94048
N        104.32072       93.33121       99.70690
C        104.78275       94.70385       99.91937
C        105.97568       95.05775       99.03326
O        106.34559       96.22333       98.99698
C        105.02472       94.99237      101.41969
C        106.09393       94.14527      102.06491
O        105.94579       92.81309      102.17633
O        107.07529       94.67289      102.55753
H        104.86245       92.55543      100.10397
H        103.98418       95.40547       99.59272
H        104.07842       94.83114      101.97863
H        105.29980       96.06529      101.52824
N        106.56927       94.13053       98.22754
C        107.55656       94.43642       97.20275
C        108.89605       94.95848       97.67307
O        109.72757       95.19557       96.80725
H        106.24150       93.16127       98.26052
H        107.11559       95.17289       96.49698
H        107.76097       93.51260       96.62509
N        109.19869       95.19715       98.98127
C        110.46621       95.81335       99.36582
C        111.65487       94.85073       99.30197
O        112.76705       95.31900       99.50203
C        110.33529       96.51861      100.73128
C        109.27999       97.60606      100.66632
N        108.20768       97.59207      101.48991
O        109.39936       98.51273       99.85487
H        108.48948       95.03342       99.70806
H        110.68717       96.62966       98.63964
H        111.29989       97.00449      100.99227
H        110.09447       95.77881      101.52017
H        108.09249       96.85207      102.19199
H        107.49094       98.33102      101.42959
N        111.52303       93.52761       98.97171
C        112.66111       92.65140       98.70735
C        112.73871       91.39011       99.55175
O        113.64387       90.60996       99.29207
H        110.58964       93.13863       98.80441
H        113.62438       93.19120       98.82884
H        112.59238       92.33685       97.64387
N        111.87800       91.11492      100.57546
C        111.99215       89.91687      101.42232
C        110.68124       89.06451      101.41349
O        109.71145       89.73428      100.68531
C        112.33924       90.35817      102.85630
C        112.62566       89.15959      103.76877
O        113.48335       91.17359      102.81358
H        111.13978       91.79550      100.79806
H        112.83969       89.28191      101.07951
H        111.47614       90.93945      103.25490
H        113.43641       91.78322      103.59566
H        111.74225       88.49234      103.84369
H        113.48707       88.57665      103.37532
H        112.88126       89.51826      104.78795
N        110.89288       87.75915      100.77321
C        109.68767       86.89735      100.73437
C        109.45891       86.23163      102.09341
O        110.36944       85.61101      102.62244
C        109.82367       85.85173       99.57818
C        109.73572       86.49448       98.16046
C        108.70533       84.78857       99.64567
C        110.80568       87.52911       97.81942
H        111.69950       87.24909      101.20302
H        108.78016       87.48780      100.47899
H        110.79287       85.31632       99.68440
H        108.73811       86.96932       98.02107
H        109.82999       85.68091       97.40694
H        108.81603       84.05261       98.82031
H        108.75825       84.21209      100.59005
H        107.70271       85.26122       99.56332
H        110.67869       87.84313       96.76123
H        110.69886       88.44256       98.43474
H        111.81912       87.09483       97.94391
N        108.21519       86.25483      102.65939
C        107.86116       85.56827      103.90229
C        107.12811       84.27413      103.58319
O        106.93535       83.97480      102.42059
C        106.97228       86.48268      104.76705
C        107.66176       87.76676      105.11645
O        108.80347       87.74782      105.82987
O        107.18127       88.83364      104.76876
H        107.45201       86.70112      102.13754
H        108.77768       85.28874      104.46609
H        106.69930       85.97272      105.71467
H        106.03147       86.70475      104.21321
N        106.73942       83.42431      104.58090
C        106.12567       82.12391      104.31242
C        104.77437       82.24561      103.60979
O        104.62344       81.57777      102.59204
C        106.06098       81.26174      105.59673
C        105.64321       79.83300      105.31951
C        106.41104       79.01639      104.46638
C        104.49708       79.29329      105.92887
C        106.03508       77.69258      104.22467
C        104.12746       77.96551      105.68680
C        104.89500       77.16672      104.83507
H        106.94910       83.67901      105.55559
H        106.81833       81.58014      103.63459
H        105.39487       81.71599      106.34972
H        107.07571       81.22434      106.04855
H        107.30486       79.39710      103.98977
H        103.89205       79.89566      106.59461
H        106.63168       77.07324      103.56696
H        103.24677       77.55383      106.16213
H        104.60899       76.13931      104.65012
N        103.74354       83.04766      104.03157
C        102.48521       83.20699      103.30683
C        102.69956       83.59707      101.85284
O        102.15185       82.96803      100.96190
C        101.77343       84.35533      104.04296
C        102.28126       84.18157      105.45122
C        103.76080       83.89027      105.21460
H        101.89923       82.26386      103.39116
H        102.16552       85.34329      103.71003
H        100.66958       84.36928      103.91924
H        102.08129       85.03279      106.13635
H        101.80409       83.26438      105.86646
H        104.33945       84.81190      104.98724
H        104.14784       83.40273      106.12257
N        103.52445       84.64196      101.56693
C        103.81277       85.13461      100.22264
C        104.46348       84.06921       99.35418
O        104.29191       84.11221       98.14372
C        104.76134       86.34243      100.32695
C        104.11590       87.53914      101.05668
C        105.09683       88.64557      101.30718
O        106.26150       88.53620      100.96421
O        104.69166       89.76648      101.93335
H        103.98703       85.10126      102.36408
H        102.86750       85.46263       99.73577
H        105.06992       86.68123       99.31963
H        105.67032       86.00960      100.87121
H        103.71918       87.24368      102.04739
H        103.27165       87.92340      100.44493
N        105.23947       83.09676       99.90454
C        105.89432       82.04652       99.15628
H        106.98886       82.09970       99.33505
H        105.52516       81.06248       99.51566
H        105.70511       82.12169       98.06631
H        105.37664       83.09109      100.91609
Ca       107.97929       90.55714      101.88774
O        109.45796       92.98243      102.28475
H        109.13620       93.28478      101.39841
H        109.85189       93.78762      102.70139
O        109.24659       91.13117      104.76058
H        109.45360       90.30401      105.26211
H        109.88973       91.79712      105.11038
O        106.29116       91.99240      105.14260
H        106.10679       92.94148      104.92970
H        106.20480       91.93942      106.12734

Ca 1.0



