%chk=holoCaM.loop2.water2.frame472.chk
%nprocshared=20
%mem=10GB
%nosave
#b3lyp/svp scf=(tight,noincore,xqc) Test 
#IOP(5/87=12) Density=Current Pop=(MK,readradii) iop(6/33=2) iop(6/42=6)

holoCaM.loop2.water2.frame472 

   -2  1 
C         -6.27393       55.86801       73.02435
C         -7.33931       56.44310       73.90635
O         -7.06814       56.75951       75.05611
H         -5.30856       55.79397       73.56710
H         -6.57845       54.86089       72.67325
H         -6.13470       56.53266       72.14395
N         -8.58364       56.65049       73.40231
C         -9.63329       57.31885       74.15457
C        -10.12136       56.46657       75.32413
O        -10.67572       55.40018       75.09440
C        -10.78441       57.66966       73.19684
C        -11.81039       58.55006       73.82232
O        -12.73590       58.94872       73.14849
O        -11.71225       58.93279       75.10343
H         -8.75394       56.39826       72.41505
H         -9.21218       58.28156       74.52176
H        -11.26836       56.74413       72.81263
H        -10.36652       58.23094       72.33220
N         -9.92738       56.87792       76.61266
C        -10.35065       56.09753       77.77305
C        -11.85935       56.18291       77.97501
O        -12.52515       55.16473       77.84826
C         -9.59663       56.55662       79.02707
H         -9.39573       57.74521       76.76870
H        -10.05004       55.03768       77.60868
H         -9.88060       55.93019       79.89872
H         -8.50345       56.44348       78.85811
H         -9.79780       57.62222       79.26134
N        -12.47040       57.36791       78.29189
C        -13.92721       57.50698       78.44192
C        -14.69926       57.21601       77.15195
O        -15.91948       57.15076       77.21926
C        -14.35306       58.90540       78.98611
C        -13.92701       60.08554       78.14292
O        -12.86931       59.94513       77.33141
O        -14.36107       61.20037       78.38369
H        -11.86583       58.18280       78.45812
H        -14.25388       56.75912       79.19941
H        -13.94054       59.05435       80.00823
H        -15.46068       58.92108       79.08496
N        -14.07912       57.01003       75.95310
C        -14.78739       56.62374       74.74317
C        -15.73444       57.66301       74.16408
O        -16.41556       57.31562       73.20939
H        -13.05694       57.04992       75.89368
H        -15.36385       55.69976       74.96889
H        -14.04702       56.37052       73.95414
N        -15.86572       58.93014       74.66161
C        -16.88951       59.85572       74.16158
C        -16.72757       60.27522       72.69631
O        -17.66435       60.84494       72.15524
C        -16.99761       61.11158       75.04968
C        -15.80265       62.02993       74.93167
N        -15.95776       63.29280       74.47201
O        -14.69141       61.63829       75.25387
H        -15.28769       59.21116       75.46533
H        -17.85781       59.31367       74.25112
H        -17.12882       60.80897       76.11095
H        -17.91339       61.66596       74.74965
H        -16.88234       63.64653       74.18728
H        -15.14994       63.92359       74.40068
N        -15.57434       60.05923       72.00554
C        -15.38518       60.38477       70.59991
C        -14.28929       61.40382       70.34166
O        -13.98882       61.60637       69.17242
H        -14.79221       59.62005       72.48664
H        -16.31845       60.76423       70.13250
H        -15.11131       59.44132       70.07985
N        -13.66852       62.10975       71.33626
C        -12.61804       63.10091       71.07223
C        -11.33918       62.74608       71.82274
O        -11.33188       61.76844       72.56177
C        -13.11457       64.52421       71.43048
C        -14.36162       64.90366       70.61961
O        -13.39787       64.60208       72.79972
H        -13.96305       61.96912       72.31499
H        -12.35686       63.11135       69.99107
H        -12.30879       65.25073       71.17884
H        -13.48133       65.56643       73.02339
H        -14.67204       65.94162       70.86525
H        -14.14379       64.85328       69.53165
H        -15.20838       64.22373       70.85266
N        -10.20360       63.49011       71.65877
C         -8.93468       63.18234       72.31406
C         -8.53322       64.33063       73.23360
O         -8.20405       65.40926       72.75799
C         -7.84429       62.86303       71.23877
C         -8.21963       61.55160       70.49568
C         -6.43892       62.75289       71.86095
C         -7.26626       61.17379       69.35818
H        -10.22704       64.30310       71.02338
H         -9.04060       62.27662       72.95067
H         -7.81258       63.70304       70.50863
H         -9.23097       61.66096       70.05013
H         -8.25119       60.70890       71.22192
H         -6.15152       63.70465       72.34718
H         -6.40011       61.92999       72.60158
H         -5.66489       62.58640       71.08649
H         -7.22426       61.98596       68.60272
H         -6.24431       60.95993       69.73118
H         -7.63158       60.24739       68.86689
N         -8.52972       64.13894       74.58515
C         -8.04024       65.10620       75.56873
C         -6.50914       65.13918       75.51818
O         -5.95037       64.37165       74.75703
C         -8.60046       64.68974       76.95430
C         -8.38791       65.68352       78.05922
O         -7.85426       65.29065       79.23035
O         -8.77548       66.83352       77.93344
H         -8.88886       63.24424       74.93737
H         -8.46207       66.10470       75.32095
H         -8.20320       63.69207       77.24866
H         -9.70294       64.59379       76.84422
N         -5.75031       66.00405       76.25381
C         -4.28652       66.03083       76.14369
C         -3.63485       64.72006       76.61194
O         -2.89851       64.15801       75.81326
C         -3.67791       67.27274       76.83652
C         -2.16636       67.28440       76.73492
C         -1.52463       67.33750       75.48293
C         -1.38305       67.22725       77.90123
C         -0.12805       67.32856       75.40399
C          0.01234       67.21825       77.81676
C          0.63950       67.26804       76.56967
H         -6.21946       66.69023       76.86093
H         -4.03508       66.16129       75.06641
H         -3.97872       67.32342       77.89401
H         -4.08109       68.19190       76.35905
H         -2.10075       67.38336       74.56783
H         -1.85102       67.18140       78.87659
H          0.36003       67.36660       74.43845
H          0.60761       67.16973       78.71933
H          1.72011       67.25908       76.50692
N         -3.82693       64.15465       77.84950
C         -3.24954       62.87809       78.27208
C         -3.44799       61.77434       77.24885
O         -2.50207       61.07717       76.91301
C         -4.03257       62.53428       79.55072
C         -4.30045       63.90022       80.12376
C         -4.69780       64.68068       78.87737
H         -2.17040       63.02554       78.50226
H         -5.03326       62.11550       79.29451
H         -3.52179       61.81859       80.22934
H         -5.04715       63.93769       80.94555
H         -3.33156       64.30352       80.49870
H         -5.73544       64.46846       78.56497
H         -4.55849       65.74646       79.10938
N         -4.67659       61.60258       76.68995
C         -5.01094       60.59857       75.68210
C         -4.10124       60.74685       74.47451
O         -3.48655       59.76824       74.07338
C         -6.52274       60.71114       75.33073
C         -7.34749       60.32045       76.57628
C         -8.83211       60.50896       76.51659
O         -9.49639       61.01393       75.45794
O         -9.47062       60.23075       77.51965
H         -5.41183       62.26403       76.98156
H         -4.84848       59.57777       76.09660
H         -6.78666       60.01882       74.50165
H         -6.75580       61.75051       75.01393
H         -7.02998       60.92572       77.44824
H         -7.14186       59.25432       76.81325
N         -3.89914       61.95877       73.89713
C         -2.96602       62.16669       72.81313
H         -1.94772       61.84844       73.12509
H         -3.28386       61.59209       71.91978
H         -2.92708       63.24727       72.55453
H         -4.38536       62.77419       74.27196
Ca       -11.60463       61.40165       76.17727
O        -12.32282       64.13908       75.69716
H        -13.13511       64.68853       75.56640
H        -11.81319       64.22963       74.85307
O        -11.59113       63.16123       78.58132
H        -11.68637       62.22250       78.88140
H        -10.82777       63.51201       79.10441

Ca 1.0



