%chk=holoCaM.loop4.water3.frame439.chk
%nprocshared=20
%mem=10GB
%nosave
#b3lyp/svp scf=(tight,noincore,xqc) Test 
#IOP(5/87=12) Density=Current Pop=(MK,readradii) iop(6/33=2) iop(6/42=6)

holoCaM.loop4.water3.frame439 

   -3  1 
C         25.44744       71.50919       46.78546
C         25.33719       70.10290       47.28827
O         24.28930       69.74071       47.80438
H         26.27103       72.03345       47.31196
H         25.65270       71.49544       45.69453
H         24.49891       72.06189       46.96066
N         26.39520       69.24841       47.17817
C         26.33234       67.86092       47.62530
C         27.71185       67.21582       47.53954
O         28.28336       67.19825       46.45735
C         25.33213       67.06158       46.75309
C         25.00861       65.71694       47.33497
O         24.28929       64.94832       46.71850
O         25.43926       65.38153       48.56456
H         27.27438       69.61257       46.77827
H         25.98907       67.86433       48.68146
H         25.75176       66.94599       45.72987
H         24.36285       67.58939       46.65724
N         28.30626       66.67092       48.64365
C         29.65722       66.10512       48.63259
C         29.69112       64.60072       48.93344
O         30.75545       64.01991       48.77165
C         30.59016       66.91255       49.59542
C         30.15589       66.78197       51.08429
C         30.64851       68.38752       49.14912
C         31.08130       67.49914       52.07188
H         27.78885       66.68589       49.52881
H         30.08276       66.19883       47.60935
H         31.61811       66.49663       49.50022
H         30.14996       65.70616       51.36159
H         29.13521       67.18540       51.23411
H         30.96506       68.45392       48.08697
H         29.65702       68.87662       49.25700
H         31.39047       68.96024       49.74117
H         31.06145       68.59796       51.92081
H         30.73294       67.30588       53.10897
H         32.12269       67.12803       51.97173
N         28.60506       63.90749       49.39529
C         28.63559       62.47082       49.71747
C         27.45546       61.67342       49.14152
O         27.46706       60.45923       49.29255
C         28.67905       62.28322       51.25297
C         27.61336       63.10154       51.91518
O         26.33736       63.01284       51.50357
O         27.93171       63.99025       52.68993
H         27.74914       64.43298       49.61317
H         29.55623       62.00335       49.30490
H         29.66593       62.63571       51.62726
H         28.58024       61.21049       51.52380
N         26.39555       62.25714       48.51144
C         25.25283       61.51388       47.99679
C         24.53041       60.72518       49.07438
O         24.46647       59.51017       48.95075
H         26.38683       63.26827       48.37493
H         25.60818       60.82152       47.20208
H         24.53175       62.21982       47.53110
N         23.96677       61.33993       50.15851
C         23.30350       60.60352       51.24015
C         21.84584       61.01072       51.45945
O         21.25849       60.53497       52.42252
C         24.12001       60.72531       52.54778
C         24.15058       62.08532       53.18979
O         23.56380       63.03586       52.70083
O         24.83368       62.24868       54.33799
H         24.04755       62.36378       50.23740
H         23.29182       59.51502       51.01329
H         25.16341       60.40014       52.34387
H         23.69115       60.02409       53.29636
N         21.17075       61.82969       50.60099
C         19.76578       62.16082       50.79757
C         19.52483       63.22853       51.84782
O         18.38843       63.35674       52.28158
H         21.62503       62.14900       49.73537
H         19.20124       61.23359       51.04155
H         19.33425       62.55080       49.85128
N         20.49667       64.11813       52.20629
C         20.24806       65.23878       53.11885
C         21.31963       66.32312       53.01336
O         22.28271       66.16539       52.27547
C         20.04198       64.73907       54.56896
C         21.23769       63.93693       55.11104
C         21.01075       63.43023       56.51749
N         21.94832       62.65908       57.11361
O         19.98367       63.70266       57.12342
H         21.41359       64.03541       51.75064
H         19.31734       65.75159       52.78755
H         19.14464       64.08566       54.59840
H         19.83813       65.60142       55.23893
H         22.15195       64.56800       55.10247
H         21.40320       63.05555       54.45581
H         22.81652       62.40985       56.61792
H         21.80169       62.30240       58.06983
N         21.16505       67.49827       53.69197
C         22.04384       68.65089       53.52761
C         22.78448       68.91765       54.82257
O         22.15456       69.04442       55.86362
C         21.22538       69.89454       53.07157
C         22.13726       71.11632       52.84765
C         20.46242       69.60814       51.76741
H         20.35708       67.60892       54.32310
H         22.78713       68.45726       52.73374
H         20.48141       70.15177       53.85773
H         22.66549       71.39560       53.78109
H         22.89044       70.90404       52.05851
H         21.53673       71.99579       52.53093
H         19.75078       68.76731       51.90152
H         19.87445       70.50080       51.46297
H         21.16780       69.35410       50.94765
N         24.13853       69.07848       54.80394
C         24.94126       69.39470       55.97909
C         25.29561       70.87094       55.95678
O         25.03907       71.53324       54.96870
C         26.19409       68.48397       55.95508
C         27.17501       68.66779       57.08242
N         26.81203       68.43999       58.36370
O         28.32509       68.99504       56.83050
H         24.62062       69.05701       53.89354
H         24.34694       69.21898       56.90185
H         26.72954       68.65432       54.99252
H         25.86235       67.42928       55.98161
H         25.85276       68.14707       58.59543
H         27.49854       68.54975       59.12397
N         25.82874       71.47306       57.05138
C         26.18223       72.89298       57.10395
C         27.26516       73.24773       56.09278
O         27.18240       74.31002       55.49195
C         26.51977       73.31770       58.55397
C         27.53865       72.43827       59.24653
C         27.11366       71.57112       60.27150
C         28.89488       72.45516       58.88818
C         28.02058       70.72329       60.90720
C         29.80380       71.60761       59.53207
C         29.36705       70.73419       60.53866
O         30.22893       69.90231       61.15654
H         25.95302       70.89648       57.89307
H         25.28401       73.49526       56.83405
H         25.55979       73.23291       59.11101
H         26.81805       74.38697       58.60573
H         26.07219       71.53410       60.56763
H         29.25109       73.12231       58.11543
H         27.67207       70.05142       61.68166
H         30.84677       71.62576       59.24669
H         31.16813       69.87093       60.92655
N         28.25785       72.36628       55.78934
C         29.26055       72.59292       54.74854
C         28.58630       72.81048       53.40462
O         28.86998       73.79441       52.73636
C         30.20058       71.36363       54.62904
C         31.08145       71.12672       55.86739
C         32.06793       72.24158       56.07321
O         32.89704       72.49301       55.21284
O         32.05335       72.95984       57.21134
H         28.27015       71.47178       56.29624
H         29.87396       73.48881       54.99099
H         30.87196       71.48747       53.75019
H         29.58767       70.45207       54.45168
H         31.65295       70.18425       55.72593
H         30.45079       71.00147       56.76990
N         27.67653       71.90696       52.95636
C         27.01794       71.96940       51.65381
C         26.22163       73.25193       51.49081
O         26.44317       73.96608       50.52323
C         26.07966       70.75746       51.48055
C         26.84745       69.42479       51.51673
C         25.94559       68.23300       51.45875
O         26.49793       67.02030       51.56732
O         24.73969       68.34246       51.33638
H         27.44913       71.12899       53.59162
H         27.78557       71.91910       50.84840
H         25.54810       70.83018       50.50578
H         25.32555       70.76773       52.29608
H         27.42155       69.32317       52.45801
H         27.56623       69.37932       50.67055
N         25.27391       73.60025       52.40284
C         24.44045       74.77827       52.30589
H         23.37449       74.46667       52.33162
H         24.63808       75.44022       53.17499
H         24.61896       75.34701       51.37071
H         25.13249       73.00533       53.22054
Ca        25.43805       65.05085       51.58760
O         25.18613       65.67751       54.40485
H         24.65706       64.85032       54.29866
H         26.12684       65.37044       54.44598
O         22.68011       64.57246       49.49414
H         22.86647       63.97071       48.73141
H         21.71778       64.78776       49.40777
O         22.71047       67.43536       49.65453
H         23.56657       67.46218       49.16042
H         22.02247       67.62096       48.96924

Ca 1.0



