%chk=holoCaM-CaMKII.loop2.water2.frame265.chk
%nprocshared=20
%mem=10GB
%nosave
#b3lyp/svp scf=(tight,noincore,xqc) Test 
#IOP(5/87=12) Density=Current Pop=(MK,readradii) iop(6/33=2) iop(6/42=6)

holoCaM-CaMKII.loop2.water2.frame265 

   -2  1 
C         65.82369      129.60434       43.36890
C         66.89391      130.26907       42.54467
O         68.01335      130.39501       43.01434
H         64.85704      129.55721       42.82187
H         66.13096      128.56517       43.61207
H         65.66264      130.16744       44.31120
N         66.61494      130.70782       41.28797
C         67.59479      131.31535       40.38915
C         68.15037      132.62109       40.93783
O         67.38182      133.50146       41.29886
C         66.94027      131.54580       39.02124
C         67.84734      132.21609       38.02954
O         67.45819      133.25881       37.52850
O         69.07143      131.74091       37.67416
H         65.65248      130.57158       40.93969
H         68.42390      130.60044       40.22000
H         66.03247      132.17881       39.15791
H         66.60741      130.57872       38.60456
N         69.50130      132.81845       40.96305
C         70.15060      134.03216       41.43735
C         70.95817      134.74559       40.34597
O         71.49027      135.80460       40.65014
C         71.08044      133.65368       42.59992
H         70.10800      132.06613       40.62042
H         69.39185      134.75138       41.81402
H         71.58031      134.55067       43.02259
H         70.50125      133.16121       43.41020
H         71.86411      132.94368       42.25188
N         71.14516      134.22905       39.08810
C         72.03301      134.85219       38.09543
C         71.46495      134.92138       36.66798
O         72.16006      135.42528       35.79639
C         73.40138      134.13566       38.12558
C         73.39017      132.67833       37.74715
O         74.54109      131.98178       37.77863
O         72.36258      132.11503       37.41611
H         70.75541      133.30462       38.87218
H         72.24455      135.90351       38.39077
H         73.80448      134.21515       39.15876
H         74.10397      134.66588       37.44778
N         70.21630      134.47735       36.35211
C         69.61336      134.59632       35.02676
C         70.18543      133.69798       33.93729
O         69.69719      133.79733       32.81995
H         69.62514      134.12124       37.10405
H         69.67222      135.65714       34.70012
H         68.53621      134.33208       35.10606
N         71.18937      132.79940       34.15379
C         71.74365      131.95518       33.08816
C         70.78591      130.87564       32.55104
O         71.18629      130.15816       31.64379
C         73.07131      131.30792       33.54063
C         72.96334      130.34100       34.68843
N         74.06454      129.67527       35.09128
O         71.89959      130.14789       35.25654
H         71.61258      132.75268       35.08820
H         72.01718      132.61923       32.23783
H         73.78768      132.10782       33.82875
H         73.50817      130.76230       32.67572
H         74.97279      129.82004       34.62781
H         74.00335      129.00287       35.85916
N         69.51732      130.70469       33.02597
C         68.57964      129.72678       32.48248
C         68.82666      128.28140       32.89615
O         68.02832      127.44260       32.50374
H         69.15814      131.33761       33.75044
H         68.54581      129.81793       31.37402
H         67.56579      129.97721       32.86226
N         69.86922      127.90670       33.69293
C         70.09470      126.53653       34.15602
C         70.16816      126.47524       35.67325
O         70.74017      127.36263       36.28957
C         71.40522      125.96382       33.57185
C         71.29740      125.74929       32.06243
O         72.49299      126.81147       33.84243
H         70.54524      128.61677       33.98879
H         69.27747      125.85594       33.82733
H         71.58959      124.95182       34.00798
H         72.79806      126.61030       34.76514
H         71.11544      126.70870       31.53582
H         72.23880      125.29977       31.68134
H         70.46456      125.04738       31.83724
N         69.68898      125.37964       36.33071
C         69.84219      125.17044       37.76989
C         71.31815      125.08764       38.12290
O         72.06570      124.37101       37.46941
C         69.08164      123.89534       38.25391
C         67.55805      124.06694       38.00022
C         69.34572      123.64305       39.75855
C         66.72829      122.82869       38.34242
H         69.23634      124.64182       35.77095
H         69.38862      126.02516       38.31400
H         69.45683      123.01651       37.68377
H         67.37542      124.27874       36.92756
H         67.17411      124.93204       38.58511
H         68.84413      122.72466       40.11824
H         70.42423      123.47732       39.94857
H         69.00345      124.50665       40.36963
H         67.08380      121.95618       37.75494
H         66.76884      122.59059       39.42364
H         65.66499      123.02091       38.08777
N         71.77568      125.75960       39.21252
C         73.15620      125.76828       39.67540
C         73.26901      124.98709       40.97142
O         72.24769      124.52989       41.46925
C         73.56589      127.24608       39.83521
C         73.52918      127.90575       38.48141
O         72.53136      128.73696       38.06340
O         74.39002      127.57887       37.68151
H         71.09067      126.27975       39.77884
H         73.82198      125.25414       38.94488
H         74.58612      127.35057       40.26578
H         72.86003      127.73570       40.52977
N         74.47339      124.70878       41.54775
C         74.56971      123.87335       42.74078
C         73.89781      124.53747       43.93981
O         73.02907      123.89778       44.50895
C         76.01905      123.42538       43.06296
C         76.06062      122.52150       44.28098
C         75.41033      121.27267       44.27256
C         76.74208      122.92595       45.44387
C         75.43934      120.45110       45.40416
C         76.76591      122.10129       46.57379
C         76.11503      120.86545       46.55410
H         75.33857      125.04413       41.09157
H         74.02814      122.92333       42.52391
H         76.68389      124.28547       43.22945
H         76.44058      122.87452       42.19465
H         74.88112      120.93203       43.39226
H         77.24750      123.88280       45.48174
H         74.93608      119.49269       45.39023
H         77.28739      122.42129       47.46679
H         76.13394      120.22899       47.42979
N         74.22250      125.79242       44.40342
C         73.61480      126.37013       45.60193
C         72.10697      126.50424       45.51155
O         71.45516      126.68892       46.53152
C         74.23694      127.77257       45.68229
C         75.58001      127.56580       45.01758
C         75.19115      126.69930       43.82853
H         73.91451      125.72595       46.45706
H         73.67779      128.46809       45.01134
H         74.25808      128.21308       46.70129
H         76.12073      128.49723       44.74732
H         76.21695      126.95795       45.70042
H         74.68410      127.30198       43.04060
H         76.09746      126.24336       43.41044
N         71.50448      126.53555       44.29523
C         70.08631      126.76804       44.08673
C         69.33264      125.48558       44.35344
O         68.43186      125.47528       45.17887
C         69.86450      127.26958       42.64735
C         70.67092      128.56751       42.41232
C         70.61238      129.05128       41.00831
O         71.39239      130.08804       40.65419
O         69.92910      128.48470       40.17209
H         72.10057      126.45661       43.45830
H         69.72708      127.58487       44.75420
H         68.78389      127.46230       42.46627
H         70.20572      126.49244       41.93068
H         71.74645      128.40337       42.61570
H         70.32450      129.37217       43.09162
N         69.68545      124.34467       43.69907
C         69.04354      123.07239       43.93022
H         67.97219      123.13060       43.64968
H         69.53466      122.29024       43.31060
H         69.14409      122.78773       44.99872
H         70.45955      124.37069       43.02674
Ca        70.58806      130.03289       38.04756
O         67.61230      128.26189       38.29949
H         67.81034      127.56814       38.97436
H         66.62376      128.28376       38.26104
O         68.33520      129.79953       35.75350
H         67.77423      128.98654       35.70474
H         67.71141      130.54267       35.55545

Ca 1.0



