%chk=holoCaM-CaMKII.loop2.water2.frame416.chk
%nprocshared=20
%mem=10GB
%nosave
#b3lyp/svp scf=(tight,noincore,xqc) Test 
#IOP(5/87=12) Density=Current Pop=(MK,readradii) iop(6/33=2) iop(6/42=6)

holoCaM-CaMKII.loop2.water2.frame416 

   -2  1 
C         53.38356       57.09022       19.47551
C         54.60080       56.73652       18.65941
O         55.71025       57.01701       19.08480
H         52.44740       56.74605       18.98275
H         53.44254       56.58654       20.46460
H         53.31719       58.18607       19.62576
N         54.45545       56.06571       17.48695
C         55.55989       55.53159       16.69485
C         56.43072       56.58441       16.01682
O         55.89949       57.39566       15.27075
C         54.97170       54.62874       15.59383
C         56.05973       53.97850       14.80863
O         56.96931       53.22741       15.44972
O         56.14596       54.15631       13.60430
H         53.49295       55.83825       17.18981
H         56.18477       54.89026       17.35607
H         54.31723       55.22327       14.91773
H         54.35659       53.83079       16.05788
N         57.79666       56.53637       16.13563
C         58.70131       57.36658       15.33683
C         59.72121       56.55881       14.50307
O         60.44296       57.19216       13.74522
C         59.44406       58.33514       16.26235
H         58.21170       55.86534       16.79879
H         58.11417       57.97998       14.61932
H         60.06894       57.77773       16.99254
H         60.09825       59.01433       15.67372
H         58.71398       58.96084       16.81923
N         59.89056       55.20073       14.61181
C         60.95625       54.45054       13.91324
C         60.48083       53.17548       13.18996
O         61.31525       52.52634       12.57362
C         62.08992       54.10976       14.91267
C         61.54192       53.55256       16.18604
O         61.71619       54.15780       17.23258
O         60.70948       52.50259       16.16861
H         59.32022       54.68735       15.29610
H         61.42456       55.07916       13.12494
H         62.62904       55.04957       15.16653
H         62.82961       53.41611       14.45866
N         59.18198       52.76445       13.18022
C         58.69107       51.61007       12.42601
C         59.13317       50.22931       12.90944
O         58.75914       49.26122       12.26239
H         58.48902       53.34509       13.65127
H         58.99222       51.73333       11.36295
H         57.57994       51.61432       12.46048
N         59.91712       50.04023       14.00833
C         60.41263       48.72872       14.44754
C         59.35159       47.77306       15.02437
O         59.72860       46.68328       15.43368
C         61.59023       48.91809       15.43439
C         61.26296       49.58276       16.74627
N         62.25848       49.83037       17.62537
O         60.11939       49.90933       17.02170
H         60.24486       50.87111       14.50746
H         60.86774       48.22488       13.56589
H         62.36064       49.53779       14.92484
H         62.04763       47.92949       15.65539
H         63.23171       49.57414       17.40548
H         62.06089       50.28625       18.52317
N         58.02048       48.07108       15.05597
C         56.99441       47.14399       15.52368
C         56.89937       46.96000       17.03173
O         56.01147       46.22715       17.44613
H         57.69155       48.94898       14.64196
H         57.12527       46.16115       15.02049
H         56.00528       47.54485       15.21176
N         57.72135       47.59615       17.91594
C         57.57028       47.50805       19.37296
C         57.33635       48.89861       19.95489
O         57.33750       49.86359       19.20088
C         58.82232       46.85299       20.01967
C         59.09178       45.43894       19.48751
O         59.96287       47.66584       19.88472
H         58.46982       48.19437       17.55021
H         56.69134       46.87975       19.63842
H         58.63208       46.73577       21.10786
H         60.23085       47.66597       18.93078
H         58.20404       44.79107       19.64953
H         59.32847       45.46174       18.40306
H         59.95438       44.99391       20.02846
N         57.17325       49.08377       21.29927
C         57.07456       50.40486       21.91435
C         58.34465       50.64310       22.70649
O         58.64926       49.87251       23.60769
C         55.81191       50.55423       22.81371
C         54.52429       50.28361       21.99601
C         55.77989       51.96966       23.43311
C         53.23364       50.44659       22.80592
H         57.18934       48.26359       21.92456
H         57.00270       51.18645       21.12933
H         55.86876       49.81393       23.64287
H         54.55688       49.23917       21.61860
H         54.47546       50.96921       21.12272
H         54.94368       52.08805       24.14885
H         56.69663       52.16843       24.01946
H         55.68709       52.73658       22.63597
H         53.25015       49.79396       23.70391
H         53.08550       51.50110       23.11872
H         52.36270       50.17235       22.17569
N         59.14004       51.70613       22.40759
C         60.38772       51.99741       23.10047
C         60.11286       52.80000       24.35615
O         58.96522       53.11533       24.62616
C         61.35016       52.74896       22.15661
C         61.66935       51.93262       20.93435
O         60.78518       51.61629       20.15467
O         62.93777       51.55232       20.69040
H         58.84724       52.34300       21.65444
H         60.88191       51.04444       23.39537
H         62.30241       52.96058       22.68579
H         60.90461       53.71739       21.84062
N         61.12488       53.14416       25.19804
C         60.89545       53.86268       26.44348
C         60.28992       55.25253       26.22200
O         59.24659       55.49651       26.81234
C         62.19024       53.96228       27.27451
C         61.91831       54.59438       28.61862
C         61.19137       53.89568       29.59948
C         62.37456       55.89309       28.89655
C         60.93346       54.48675       30.84001
C         62.10219       56.48534       30.13309
C         61.38576       55.78191       31.10533
H         62.08412       52.84299       24.96825
H         60.18182       53.25785       27.04933
H         62.94207       54.54631       26.71709
H         62.63306       52.95560       27.43747
H         60.83294       52.89169       29.40727
H         62.92395       56.45308       28.15018
H         60.38106       53.94173       31.59490
H         62.44542       57.49107       30.33647
H         61.17995       56.24099       32.06350
N         60.85401       56.23334       25.43809
C         60.30599       57.58208       25.35649
C         58.96973       57.63235       24.63744
O         58.28830       58.64233       24.74821
C         61.40342       58.37684       24.64257
C         61.99066       57.33159       23.71625
C         62.04823       56.10466       24.62581
H         60.16266       58.00160       26.37726
H         61.07830       59.32782       24.16864
H         62.19898       58.61311       25.38635
H         61.24496       57.14237       22.91057
H         62.96125       57.59581       23.24475
H         62.05665       55.19910       23.98645
H         62.94221       56.15010       25.27922
N         58.52166       56.58739       23.89099
C         57.18452       56.54399       23.31624
C         56.19277       56.30532       24.43324
O         55.25346       57.07225       24.58718
C         57.07474       55.40919       22.28635
C         58.03617       55.63306       21.11429
C         57.98638       54.52278       20.11713
O         58.88674       54.52645       19.13120
O         57.19992       53.59650       20.21815
H         59.14238       55.77849       23.74399
H         56.95885       57.49087       22.77383
H         56.03413       55.36572       21.89382
H         57.31988       54.43902       22.76823
H         59.07866       55.67562       21.49196
H         57.81645       56.59351       20.60171
N         56.37049       55.24704       25.27204
C         55.48170       54.94322       26.36687
H         54.47323       54.69822       25.97563
H         55.87072       54.06343       26.92540
H         55.42605       55.80605       27.06250
H         57.18582       54.63702       25.14214
Ca        59.21674       52.78123       17.78609
O         57.04303       50.63361       16.36198
H         57.83394       50.91991       15.83865
H         56.29253       50.66018       15.71566
O         55.61588       52.34690       18.16623
H         54.74203       52.16420       17.74072
H         55.54901       51.91866       19.05500

Ca 1.0



