%chk=holoCaM.loop3.water2.frame60.chk
%nprocshared=20
%mem=10GB
%nosave
#b3lyp/svp scf=(tight,noincore,xqc) Test 
#IOP(5/87=12) Density=Current Pop=(MK,readradii) iop(6/33=2) iop(6/42=6)

holoCaM.loop3.water2.frame60 

   0  1 
C         69.68479       -8.29025       21.40164
C         68.54301       -8.09847       22.34839
O         68.13904       -9.05885       22.98556
H         70.58405       -8.62062       21.95750
H         69.40160       -9.06685       20.65838
H         69.91405       -7.35322       20.85211
N         67.95303       -6.88026       22.48384
C         66.73572       -6.68946       23.25693
C         65.63863       -7.46553       22.53914
O         65.29076       -7.09634       21.42747
C         66.43809       -5.16988       23.36981
C         65.05705       -4.84801       23.84330
O         64.59941       -5.22061       25.04871
O         64.32883       -4.21218       23.10643
H         68.34953       -6.08049       21.96657
H         66.87516       -7.08449       24.28831
H         66.54209       -4.71069       22.36200
H         67.18375       -4.68848       24.03637
N         65.07759       -8.57286       23.11112
C         64.03938       -9.36756       22.45016
C         62.67463       -9.05787       23.03458
O         61.69756       -9.63433       22.56044
C         64.34309      -10.88265       22.53751
C         65.68088      -11.26730       21.89117
C         65.86914      -12.79356       21.85642
C         67.24320      -13.22418       21.30948
N         67.47873      -12.75965       19.94080
H         65.36617       -8.84780       24.06166
H         63.97703       -9.09801       21.37359
H         63.53276      -11.42617       22.00146
H         64.33900      -11.21457       23.59963
H         66.50487      -10.81409       22.47315
H         65.70072      -10.87442       20.85332
H         65.06750      -13.24904       21.23400
H         65.77736      -13.19885       22.88814
H         67.28660      -14.33643       21.32533
H         68.04971      -12.84269       21.97381
H         68.37892      -13.16455       19.59585
H         66.70399      -13.07099       19.31136
H         67.56684      -11.71882       19.91664
N         62.50493       -8.12218       24.00933
C         61.21270       -7.70637       24.52783
C         60.89949       -6.25759       24.15049
O         59.84995       -5.76843       24.52958
C         61.13342       -7.95154       26.05104
C         62.13371       -7.18004       26.87202
O         61.70164       -6.28462       27.77869
O         63.33007       -7.39506       26.76604
H         63.33006       -7.62418       24.37536
H         60.39991       -8.31634       24.07397
H         61.27208       -9.03601       26.25336
H         60.11153       -7.67701       26.38972
N         61.73539       -5.53401       23.34165
C         61.42452       -4.19956       22.85194
C         61.43162       -3.09101       23.89023
O         61.18743       -1.96356       23.48244
H         62.58592       -5.96959       22.96744
H         60.43829       -4.22453       22.34274
H         62.16886       -3.92391       22.07362
N         61.66215       -3.28890       25.22598
C         61.52899       -2.18496       26.17907
C         62.59791       -1.09983       26.03649
O         62.36574       -0.01035       26.54183
C         61.44684       -2.65529       27.65056
C         62.68872       -3.32306       28.18472
N         62.80612       -3.57126       29.50804
O         63.59391       -3.64029       27.43443
H         61.83980       -4.23882       25.57937
H         60.54342       -1.71089       25.96694
H         60.58869       -3.34860       27.78626
H         61.25187       -1.75400       28.27150
H         62.05829       -3.30049       30.16276
H         63.65941       -4.01100       29.88108
N         63.79952       -1.32389       25.42386
C         64.81636       -0.28925       25.25976
C         66.08380       -0.53278       26.06308
O         67.00099        0.26364       25.92038
H         64.01494       -2.26117       25.05753
H         64.43460        0.70803       25.57247
H         65.06656       -0.21967       24.18061
N         66.18990       -1.54011       26.98036
C         67.33029       -1.69927       27.88178
C         67.84814       -3.15920       27.82590
O         66.94441       -4.01184       28.47120
C         66.85856       -1.31496       29.30422
C         66.33923        0.10412       29.32314
C         64.95429        0.35102       29.32448
C         67.22922        1.18964       29.30669
C         64.47012        1.66166       29.30144
C         66.74198        2.50110       29.30172
C         65.35951        2.74074       29.29424
O         64.87551        3.99920       29.27781
H         65.39030       -2.16124       27.12746
H         68.15890       -1.02045       27.58283
H         67.65859       -1.43848       30.06563
H         66.02908       -2.00110       29.58540
H         64.24794       -0.47041       29.31854
H         68.29854        1.01947       29.30609
H         63.40171        1.83803       29.28560
H         67.43897        3.32960       29.29877
H         65.45514        4.77425       29.27449
N         69.18260       -3.31058       28.42659
C         69.66113       -4.71298       28.44879
C         70.60206       -4.84849       29.62790
O         71.68434       -4.27758       29.59315
C         70.37725       -5.16062       27.12343
C         69.49225       -4.95119       25.86996
C         70.81123       -6.63840       27.22876
C         70.19836       -5.30512       24.55764
H         69.88037       -2.68992       27.95388
H         68.80655       -5.39904       28.62888
H         71.28984       -4.53685       26.99595
H         69.22955       -3.87771       25.78960
H         68.55724       -5.54619       25.95539
H         71.46251       -6.80367       28.10441
H         69.92121       -7.29211       27.31399
H         71.40804       -6.95810       26.35294
H         69.54798       -5.03390       23.70475
H         71.14521       -4.73357       24.46172
H         70.40784       -6.39126       24.48225
N         70.24485       -5.57603       30.72587
C         71.14924       -5.76120       31.85686
C         72.30128       -6.67906       31.47373
O         72.29605       -7.22749       30.38246
C         70.39136       -6.32760       33.07563
O         69.87548       -7.60578       32.81552
H         69.29738       -5.98207       30.76315
H         71.54483       -4.76587       32.15784
H         69.57748       -5.62673       33.37570
H         71.06780       -6.39981       33.95288
H         68.93142       -7.49441       32.53069
N         73.32517       -6.90990       32.33900
C         74.40269       -7.85448       32.05571
C         73.85021       -9.26049       31.90801
O         74.24355       -9.96072       30.98691
C         75.44709       -7.82780       33.17209
H         73.32684       -6.40868       33.24099
H         74.93096       -7.55858       31.12042
H         76.27391       -8.53080       32.93031
H         75.87675       -6.80632       33.25415
H         74.99881       -8.11425       34.14614
N         72.89647       -9.71832       32.76950
C         72.27532      -11.03476       32.66411
C         71.63004      -11.23502       31.30264
O         71.96503      -12.19882       30.62753
C         71.22028      -11.20685       33.76671
H         72.57965       -9.08639       33.52122
H         73.05262      -11.81614       32.81772
H         70.76126      -12.21667       33.70755
H         71.69270      -11.09511       34.76589
H         70.41702      -10.44438       33.67280
N         70.70055      -10.35486       30.83182
C         70.02817      -10.50575       29.54205
C         71.01321      -10.51265       28.37614
O         70.67952      -11.05964       27.33439
C         68.97890       -9.38065       29.37336
C         68.13366       -9.49663       28.09209
C         67.10823       -8.39957       27.97677
O         66.37209       -8.36695       27.00407
O         66.99042       -7.44922       28.92551
H         70.45459       -9.55232       31.42620
H         69.49991      -11.48539       29.55994
H         69.50026       -8.39806       29.38811
H         68.29001       -9.41802       30.24637
H         67.60939      -10.47609       28.08784
H         68.78682       -9.43552       27.19783
N         72.23815       -9.92500       28.47692
C         73.21909       -9.91428       27.41154
H         74.14886      -10.40604       27.76775
H         72.86709      -10.44615       26.50344
H         73.45203       -8.86384       27.13867
H         72.49708       -9.44932       29.34624
Ca        65.90802       -5.17228       26.84683
O         65.90619       -5.27844       30.97703
H         66.27499       -4.36483       31.07349
H         65.04797       -5.25037       31.46951
O         63.78078       -7.55325       30.00282
H         62.80817       -7.71057       29.90679
H         63.91901       -7.46080       30.97866

Ca 1.0



