%chk=holoCaM-CaMKII.loop3.water1.frame349.chk
%nprocshared=20
%mem=10GB
%nosave
#b3lyp/svp scf=(tight,noincore,xqc) Test 
#IOP(5/87=12) Density=Current Pop=(MK,readradii) iop(6/33=2) iop(6/42=6)

holoCaM-CaMKII.loop3.water1.frame349 

   0  1 
C         23.78730       64.48006       34.84757
C         22.46851       65.19400       34.83177
O         22.44473       66.41215       34.73194
H         24.63006       65.19937       34.77429
H         23.88772       63.90350       35.79137
H         23.83881       63.77862       33.98797
N         21.31769       64.47512       34.92907
C         19.98313       65.05771       34.90480
C         19.28729       64.75163       36.22748
O         19.33959       63.60904       36.66266
C         19.22158       64.48502       33.69665
C         17.90556       65.17621       33.51124
O         17.06992       65.13928       34.38677
O         17.62093       65.83820       32.38334
H         21.39101       63.44862       35.01487
H         20.04232       66.15588       34.76314
H         19.06280       63.39189       33.82006
H         19.82474       64.64133       32.77669
N         18.61021       65.72032       36.91984
C         18.08858       65.50990       38.27476
C         16.58398       65.27659       38.35668
O         16.12854       64.90734       39.43047
C         18.47499       66.70759       39.18273
C         17.67810       67.99231       38.84357
C         18.04776       69.16845       39.75322
C         17.18276       70.39825       39.42713
N         17.48645       71.51089       40.32611
H         18.50280       66.64443       36.48240
H         18.56357       64.59397       38.68904
H         19.56771       66.89621       39.09638
H         18.25484       66.44201       40.23956
H         16.59269       67.79433       38.97378
H         17.84014       68.28493       37.79095
H         19.12225       69.42229       39.62104
H         17.87283       68.87563       40.81111
H         16.10641       70.13399       39.53388
H         17.35940       70.71507       38.37485
H         17.29448       71.23346       41.31635
H         18.48776       71.79433       40.22479
H         16.87620       72.32450       40.08205
N         15.74347       65.53766       37.31662
C         14.28612       65.42892       37.41496
C         13.67762       64.48791       36.37333
O         12.46498       64.32736       36.37546
C         13.68117       66.84638       37.32851
C         14.07094       67.57359       36.07332
O         14.76838       68.72391       36.14510
O         13.76957       67.11937       34.98543
H         16.13935       65.91111       36.44615
H         13.98803       65.01843       38.40381
H         14.04579       67.43498       38.19853
H         12.57333       66.79327       37.39715
N         14.44299       63.82391       35.46439
C         13.92095       62.90599       34.46805
C         12.92220       63.54001       33.52311
O         11.82912       63.00554       33.40015
H         15.45906       63.93235       35.48980
H         13.45578       62.03424       34.97802
H         14.77181       62.52419       33.86115
N         13.23563       64.65387       32.79649
C         12.34702       65.21883       31.77692
C         12.94933       65.18966       30.37172
O         12.20320       65.47733       29.44567
C         11.80675       66.62111       32.15555
C         12.83544       67.72939       32.42209
N         12.15950       69.00470       32.63847
O         13.76654       67.86378       31.39730
H         14.14702       65.08786       32.96797
H         11.44125       64.57889       31.69539
H         11.20054       66.51635       33.08183
H         11.11840       66.95857       31.34933
H         11.59143       68.94263       33.51340
H         12.87650       69.74989       32.78063
N         14.24178       64.81952       30.10811
C         14.73586       64.61624       28.74723
C         15.84908       65.54902       28.30862
O         16.31634       65.37164       27.19234
H         14.88848       64.60523       30.87983
H         13.92081       64.72561       28.00199
H         15.10299       63.56946       28.67728
N         16.33676       66.54858       29.09657
C         17.40627       67.45487       28.67017
C         18.07228       68.17862       29.83955
O         17.59765       68.11248       30.96086
C         16.89630       68.40359       27.56171
C         15.65621       69.17276       27.96915
C         15.71285       70.19638       28.93067
C         14.41827       68.86444       27.37434
C         14.55469       70.89815       29.28524
C         13.26238       69.56035       27.73657
C         13.32516       70.58075       28.68897
O         12.20138       71.24898       29.01890
H         15.94337       66.65003       30.02764
H         18.22660       66.82325       28.26137
H         16.64699       67.77255       26.68361
H         17.69022       69.10130       27.22138
H         16.65125       70.46276       29.39790
H         14.34236       68.07715       26.63431
H         14.61405       71.68991       30.02118
H         12.31671       69.30673       27.27324
H         12.20044       71.96925       29.66511
N         19.27530       68.78935       29.65153
C         20.14159       69.21886       30.74878
C         20.45098       70.70054       30.63547
O         20.87591       71.14799       29.57916
C         21.43978       68.34986       30.72085
C         21.06793       66.85262       30.91980
C         22.44151       68.80141       31.80369
C         22.24053       65.88358       30.76297
H         19.66053       68.83578       28.69514
H         19.66440       69.03792       31.73780
H         21.92399       68.47522       29.72668
H         20.31829       66.54875       30.15986
H         20.61284       66.71626       31.92481
H         23.38470       68.22329       31.74651
H         22.72576       69.86361       31.66332
H         22.00441       68.67279       32.81487
H         21.87098       64.84276       30.88276
H         22.68500       65.98533       29.75028
H         23.02055       66.04868       31.53173
N         20.33816       71.50107       31.73653
C         20.69828       72.91569       31.76166
C         21.96661       73.11247       32.57403
O         22.46686       72.15058       33.13401
C         19.53655       73.73015       32.35456
O         19.28878       73.32219       33.67470
H         20.05357       71.06999       32.62784
H         20.90843       73.27742       30.73214
H         18.62584       73.56545       31.73767
H         19.79670       74.81169       32.34087
H         18.60080       73.93873       34.03618
N         22.57368       74.33158       32.65224
C         23.81239       74.53475       33.40189
C         23.61653       74.33175       34.89532
O         24.56852       73.95831       35.56668
C         24.38975       75.92733       33.14489
H         22.16467       75.12272       32.13157
H         24.56312       73.79933       33.03266
H         24.57627       76.05987       32.05757
H         23.68569       76.71370       33.48994
H         25.35733       76.04505       33.67919
N         22.41017       74.56774       35.48644
C         22.15350       74.32854       36.90318
C         22.34634       72.86106       37.21880
O         23.08031       72.52567       38.13747
C         20.71484       74.73391       37.25502
H         21.63389       74.91321       34.90148
H         22.83569       74.95039       37.52492
H         20.52231       74.56116       38.33587
H         20.56232       75.81288       37.04108
H         19.97577       74.14967       36.66513
N         21.71667       71.93180       36.45107
C         21.81307       70.49037       36.64727
C         23.26385       70.04367       36.58632
O         23.74379       69.46180       37.54965
C         20.96333       69.76231       35.57785
C         19.46499       70.09352       35.72047
C         18.64755       69.48128       34.61988
O         17.97804       70.19245       33.88928
O         18.63503       68.15221       34.43311
H         21.15357       72.28503       35.66411
H         21.40600       70.22533       37.64968
H         21.09248       68.66261       35.68181
H         21.31535       70.06538       34.56981
H         19.29173       71.18813       35.69737
H         19.11128       69.72473       36.70003
N         24.03429       70.31022       35.49789
C         25.42958       69.93864       35.42332
H         25.99485       70.42120       36.24936
H         25.53438       68.83579       35.49182
H         25.85915       70.28074       34.45722
H         23.62752       70.81148       34.70187
Ca        15.60450       66.86751       32.31380
O         15.22376       70.83678       33.23869
H         15.78257       71.37013       32.61941
H         14.60020       71.49325       33.63933

Ca 1.0



