%chk=holoCaM-CaMKII.loop1.water2.frame450.chk
%nprocshared=20
%mem=10GB
%nosave
#b3lyp/svp scf=(tight,noincore,xqc) Test 
#IOP(5/87=12) Density=Current Pop=(MK,readradii) iop(6/33=2) iop(6/42=6)

holoCaM-CaMKII.loop1.water2.frame450 

   0  1 
C         73.43193       59.00034       29.87561
C         74.89979       58.95763       29.56988
O         75.65401       59.75136       30.10893
H         72.86544       59.18661       28.93845
H         73.11306       58.02498       30.30126
H         73.19771       59.80503       30.60356
N         75.37212       58.02828       28.69989
C         76.77693       57.88955       28.33240
C         77.29259       59.14603       27.63036
O         76.70821       59.57049       26.64406
C         76.92924       56.63985       27.44410
C         78.34261       56.40488       27.01763
O         79.31009       56.25549       27.93798
O         78.61597       56.33815       25.83124
H         74.68735       57.37151       28.29194
H         77.37261       57.70462       29.25568
H         76.28302       56.73206       26.54443
H         76.59525       55.75175       28.02548
N         78.41733       59.76645       28.09269
C         79.01088       60.97970       27.53604
C         80.39933       60.71334       26.96318
O         81.05997       61.66546       26.56945
C         79.15696       62.03640       28.65847
C         77.86110       62.37588       29.40353
C         76.78199       62.96913       28.49215
C         75.53485       63.33776       29.30327
N         74.50428       63.91249       28.44110
H         78.90359       59.34549       28.88927
H         78.38578       61.39291       26.71652
H         79.57640       62.97488       28.23203
H         79.88037       61.65622       29.41504
H         78.11219       63.11784       30.19323
H         77.47881       61.46565       29.90687
H         76.49432       62.23126       27.71430
H         77.18172       63.88046       27.99598
H         75.80798       64.07553       30.09040
H         75.13153       62.42786       29.80033
H         74.22265       63.22124       27.70834
H         73.66846       64.15158       29.02164
H         74.86263       64.78373       27.98659
N         80.90745       59.45243       26.87301
C         82.25754       59.15515       26.41531
C         82.19287       58.47084       25.06734
O         82.77965       58.95780       24.11147
C         82.95780       58.25373       27.46120
C         83.08331       58.94717       28.79126
O         82.50285       58.44461       29.90036
O         83.72536       59.98108       28.87563
H         80.31892       58.65138       27.13721
H         82.85981       60.08298       26.29184
H         83.97519       57.98200       27.10630
H         82.38481       57.31068       27.59604
N         81.49136       57.31925       24.93648
C         81.38948       56.53316       23.72032
C         82.04148       55.20176       23.97826
O         82.95460       54.82521       23.25802
H         81.01727       56.96352       25.77350
H         81.87963       57.03326       22.85632
H         80.31514       56.39283       23.47363
N         81.66384       54.47836       25.06724
C         82.32507       53.26785       25.52076
C         81.32366       52.14674       25.78019
O         81.72688       51.11182       26.29314
C         83.20331       53.61380       26.75050
C         82.51332       54.17434       27.96315
O         81.30530       54.32080       28.00518
O         83.25969       54.53701       29.02273
H         80.91471       54.84926       25.66576
H         83.04326       52.89945       24.75618
H         83.94375       54.37824       26.42494
H         83.76688       52.71039       27.06382
N         80.01215       52.25288       25.40188
C         79.04054       51.18632       25.57255
C         78.56616       50.98781       26.99867
O         77.75126       50.09895       27.19597
H         79.68795       53.08682       24.89261
H         79.46241       50.23943       25.16782
H         78.13601       51.43071       24.97527
N         79.01777       51.74786       28.04108
C         78.58598       51.53756       29.42335
C         78.14524       52.82554       30.11679
O         78.34379       53.91842       29.60933
C         79.71280       50.82991       30.23641
C         79.84285       49.36938       29.80619
O         80.97638       51.43834       30.09809
H         79.72267       52.46838       27.86132
H         77.68820       50.88165       29.44197
H         79.43884       50.81813       31.31343
H         80.86921       52.36034       29.75943
H         80.12728       49.29138       28.73647
H         80.62124       48.86830       30.41956
H         78.87966       48.83937       29.96923
N         77.47250       52.71348       31.30133
C         76.94796       53.81287       32.11028
C         77.44344       53.61872       33.54203
O         77.33379       52.51331       34.05337
C         75.38747       53.78363       32.06972
C         74.88562       53.98413       30.61318
C         74.79262       54.86704       32.99857
C         73.37619       53.78992       30.44848
H         77.26811       51.76024       31.63753
H         77.26967       54.80375       31.71902
H         75.04733       52.78714       32.43041
H         75.36504       53.23496       29.94954
H         75.16946       54.99716       30.25012
H         75.10819       55.88153       32.67251
H         73.68623       54.82417       33.01878
H         75.11770       54.71366       34.04693
H         72.79454       54.53815       31.02178
H         73.10584       53.90751       29.37787
H         73.08695       52.76792       30.77417
N         77.92229       54.66591       34.27602
C         78.36810       54.52590       35.66427
C         77.36906       55.15349       36.62242
O         76.39760       55.75896       36.19460
C         79.77165       55.16890       35.86938
C         80.85787       54.52434       35.01022
O         79.73315       56.55827       35.65739
H         77.90969       55.60273       33.85742
H         78.43061       53.45119       35.94058
H         80.09368       55.01418       36.91992
H         79.74335       56.72440       34.68053
H         81.83599       55.00782       35.22318
H         80.93785       53.44053       35.23415
H         80.61641       54.67057       33.94154
N         77.58139       55.04484       37.96565
C         76.76380       55.70230       38.98301
C         76.76510       57.19929       38.75252
O         75.71457       57.82012       38.82652
C         77.30757       55.40684       40.40699
C         77.15683       53.92802       40.78236
O         78.65804       55.78734       40.49994
H         78.40061       54.50376       38.27611
H         75.71428       55.33338       38.93749
H         76.69916       56.00213       41.12858
H         78.87260       55.87041       41.46533
H         77.73727       53.27242       40.10161
H         77.52422       53.76766       41.81830
H         76.08688       53.63321       40.74350
N         77.92771       57.83446       38.44705
C         78.04110       59.26420       38.20099
C         77.16265       59.69311       37.03373
O         76.34890       60.59060       37.19946
C         79.52875       59.59881       37.94961
C         79.82043       61.10217       37.91933
C         81.33591       61.34253       37.85655
C         81.67151       62.83314       37.97326
N         83.11961       63.04042       37.98966
H         78.78378       57.26105       38.38283
H         77.72607       59.80330       39.12233
H         79.89091       59.11464       37.01508
H         80.10596       59.17238       38.80070
H         79.43147       61.55126       38.85912
H         79.31446       61.58198       37.05346
H         81.74565       60.93232       36.90703
H         81.81944       60.81367       38.70788
H         81.24144       63.23127       38.91967
H         81.22298       63.38801       37.12024
H         83.54597       62.53342       38.79990
H         83.54406       62.69746       37.09771
H         83.31837       64.06156       38.09283
N         77.27792       59.08334       35.82012
C         76.51369       59.47987       34.63469
C         75.01381       59.23531       34.77482
O         74.27330       59.68657       33.91101
C         77.03609       58.72955       33.38846
C         78.51260       59.06266       33.10951
C         79.07051       58.24382       31.98839
O         79.58080       58.79660       31.03339
O         79.07502       56.89978       32.05608
H         77.96425       58.32306       35.74004
H         76.66946       60.57032       34.47569
H         76.43894       59.00477       32.49298
H         76.91000       57.63982       33.56015
H         79.14275       58.85636       33.99276
H         78.60555       60.14591       32.87480
N         74.48502       58.52922       35.81214
C         73.06139       58.32607       35.96723
H         72.65019       57.79577       35.08278
H         72.86455       57.71401       36.87383
H         72.55198       59.30598       36.08715
H         75.10072       58.10833       36.51373
Ca        81.28726       56.54042       29.97300
O         82.87560       56.60398       32.53075
H         83.35672       57.41917       32.24074
H         83.25788       56.39416       33.41895
O         81.40840       53.59474       31.90153
H         82.12292       53.35110       32.54100
H         81.89467       53.92802       31.10890

Ca 1.0



