%chk=holoCaM-CaMKII.loop3.water1.frame437.chk
%nprocshared=20
%mem=10GB
%nosave
#b3lyp/svp scf=(tight,noincore,xqc) Test 
#IOP(5/87=12) Density=Current Pop=(MK,readradii) iop(6/33=2) iop(6/42=6)

holoCaM-CaMKII.loop3.water1.frame437 

   0  1 
C         60.04313       73.43952       33.77746
C         59.66608       73.33588       35.22689
O         60.34044       73.92727       36.05818
H         61.07322       73.05786       33.62727
H         59.34927       72.85671       33.13494
H         59.99639       74.50338       33.46054
N         58.56296       72.63177       35.60188
C         58.09583       72.58081       36.98023
C         59.03375       71.72759       37.83226
O         59.26463       70.57412       37.49772
C         56.64581       72.06098       37.01859
C         55.94769       72.44512       38.29566
O         56.40740       72.04513       39.49053
O         54.96446       73.16455       38.24867
H         57.99321       72.18610       34.86558
H         58.05033       73.62824       37.34906
H         56.61567       70.96662       36.83870
H         56.07596       72.55256       36.19808
N         59.60973       72.24646       38.95040
C         60.56853       71.53953       39.80733
C         60.00260       70.23251       40.36954
O         60.66356       69.20963       40.26126
C         61.01331       72.50593       40.93178
C         62.14870       71.98552       41.83055
C         62.62771       73.11331       42.76875
C         63.80530       72.72226       43.67686
N         63.42826       71.72887       44.68236
H         59.36102       73.21756       39.19629
H         61.47703       71.30463       39.20755
H         60.13824       72.77688       41.56178
H         61.38638       73.42857       40.43184
H         63.00574       71.67170       41.19527
H         61.78825       71.11040       42.40977
H         61.78729       73.47701       43.39865
H         62.97454       73.95973       42.13533
H         64.14989       73.64026       44.20464
H         64.65415       72.34615       43.06391
H         64.25052       71.54802       45.30282
H         62.64345       72.09554       45.26898
H         63.14901       70.83001       44.23108
N         58.77519       70.19870       40.95981
C         58.15731       69.00460       41.55943
C         56.91786       68.54083       40.78729
O         56.27294       67.60077       41.23275
C         57.78775       69.25148       43.05241
C         56.80659       70.37932       43.21187
O         55.66032       70.18681       43.58189
O         57.22456       71.60533       42.88157
H         58.24393       71.07430       40.93863
H         58.87161       68.15221       41.54641
H         58.70145       69.48656       43.63998
H         57.35247       68.31743       43.47017
N         56.54976       69.10490       39.60244
C         55.42186       68.64595       38.80797
C         54.03766       68.96049       39.35571
O         53.09222       68.56123       38.68956
H         57.15107       69.82058       39.18035
H         55.51811       67.54838       38.65217
H         55.47628       69.12369       37.80773
N         53.79830       69.63804       40.52348
C         52.42530       69.82614       41.01009
C         51.57492       70.75728       40.14286
O         50.36534       70.76144       40.33044
C         52.36092       70.27002       42.48781
C         52.85771       71.66444       42.78062
N         52.71989       72.16816       44.02781
O         53.36223       72.35000       41.90567
H         54.58861       69.95119       41.10310
H         51.95028       68.81876       40.98573
H         52.91990       69.54501       43.11725
H         51.29371       70.23133       42.79960
H         52.28551       71.60750       44.77546
H         53.02561       73.12623       44.24397
N         52.11683       71.56989       39.18910
C         51.31636       72.37239       38.27515
C         51.60922       73.86068       38.29702
O         51.12643       74.52436       37.39198
H         53.13718       71.58416       39.05872
H         50.22411       72.23328       38.42775
H         51.55206       72.00970       37.25166
N         52.34749       74.47595       39.27276
C         52.67354       75.90533       39.20372
C         54.12314       76.17071       39.56237
O         54.79278       75.29091       40.07863
C         51.66556       76.74903       40.01302
C         51.63402       76.47794       41.50058
C         52.70268       76.85845       42.33188
C         50.50240       75.87600       42.07865
C         52.63799       76.63847       43.71142
C         50.44518       75.64826       43.45630
C         51.51368       76.03057       44.27823
O         51.46841       75.82512       45.61008
H         52.66821       73.93139       40.08252
H         52.57062       76.23824       38.14781
H         50.66402       76.53626       39.57862
H         51.85310       77.83385       39.85644
H         53.57823       77.34411       41.92282
H         49.66117       75.58125       41.46387
H         53.46148       76.94714       44.34253
H         49.56682       75.18118       43.88370
H         50.70708       75.41093       46.04119
N         54.68199       77.38011       39.26160
C         56.07913       77.70051       39.53285
C         56.19520       78.96177       40.36764
O         55.44826       79.90565       40.16189
C         56.92113       77.80673       38.22315
C         56.42488       78.91821       37.26146
C         56.96864       76.43010       37.53393
C         57.33474       79.12134       36.04599
H         54.10399       78.08474       38.78241
H         56.55488       76.88554       40.11681
H         57.96382       78.05663       38.52325
H         56.40606       79.88611       37.80316
H         55.39697       78.69359       36.90593
H         57.66380       76.42833       36.67081
H         57.34692       75.66924       38.24831
H         55.95999       76.12313       37.18545
H         57.35605       78.22402       35.39565
H         56.95112       79.96542       35.43496
H         58.36826       79.36430       36.37388
N         57.22375       79.06919       41.25268
C         57.55663       80.28423       41.98187
C         58.84127       80.85463       41.40315
O         59.37754       80.28496       40.46866
C         57.70483       79.95460       43.47915
O         58.74185       79.03041       43.67438
H         57.86369       78.27401       41.35551
H         56.76301       81.05196       41.86183
H         56.74871       79.52535       43.85236
H         57.92579       80.88522       44.04672
H         58.83846       78.91832       44.65549
N         59.39677       81.98998       41.90843
C         60.65919       82.53163       41.40936
C         61.77338       81.51277       41.56596
O         62.48620       81.25246       40.60581
C         61.01933       83.81233       42.16537
H         58.91869       82.46937       42.68470
H         60.55315       82.80366       40.33481
H         61.96786       84.23199       41.76634
H         60.21750       84.56810       42.02410
H         61.13959       83.61250       43.25100
N         61.93387       80.85489       42.74760
C         62.94906       79.83496       42.99135
C         62.91532       78.73705       41.94361
O         63.95426       78.42409       41.38017
C         62.73384       79.21599       44.38000
H         61.26906       81.07147       43.50785
H         63.95631       80.30697       42.98064
H         63.51437       78.45408       44.58980
H         62.79231       80.00264       45.16200
H         61.73563       78.72941       44.44454
N         61.74586       78.11732       41.62891
C         61.64526       77.02107       40.66572
C         62.15925       77.45822       39.30661
O         63.11596       76.86868       38.82313
C         60.18551       76.52023       40.57274
C         59.72262       75.95489       41.92568
C         58.27811       75.56596       41.95211
O         57.54631       76.01668       42.81848
O         57.79956       74.64052       41.11017
H         60.89487       78.45576       42.09914
H         62.27345       76.17240       41.02047
H         60.10477       75.71839       39.80524
H         59.53635       77.35851       40.25903
H         59.87705       76.68196       42.74592
H         60.33551       75.06374       42.16365
N         61.58943       78.50431       38.64836
C         62.06450       79.01281       37.37877
H         62.94519       78.45353       36.99987
H         61.25045       78.94815       36.62770
H         62.35565       80.07762       37.50234
H         60.78614       78.98163       39.06977
Ca        56.19038       73.37988       42.02500
O         55.01518       74.69390       44.31618
H         55.32852       73.99916       44.94770
H         55.56876       75.48768       44.51945

Ca 1.0



