%chk=holoCaM-CaMKII.loop1.water2.frame136.chk
%nprocshared=20
%mem=10GB
%nosave
#b3lyp/svp scf=(tight,noincore,xqc) Test 
#IOP(5/87=12) Density=Current Pop=(MK,readradii) iop(6/33=2) iop(6/42=6)

holoCaM-CaMKII.loop1.water2.frame136 

   0  1 
C         21.59234       39.90193       74.53694
C         20.50766       40.23828       75.51240
O         20.80528       40.58362       76.64628
H         22.59239       40.01102       75.00750
H         21.46739       38.85500       74.19040
H         21.52929       40.58699       73.66502
N         19.20613       40.17479       75.12390
C         18.10392       40.52415       76.00821
C         18.03800       39.55191       77.17700
O         17.83405       38.36891       76.94185
C         16.78415       40.52113       75.20844
C         15.61394       41.08784       75.95595
O         14.52558       41.11521       75.41335
O         15.74956       41.60844       77.18819
H         19.00284       39.90257       74.14875
H         18.27452       41.55484       76.36678
H         16.55090       39.48342       74.88341
H         16.90859       41.14877       74.29903
N         18.21127       39.98159       78.46257
C         18.15681       39.08856       79.61922
C         16.99722       39.39870       80.55615
O         16.82849       38.65156       81.51053
C         19.51224       39.09455       80.36504
C         20.66805       38.44307       79.57211
C         20.39016       36.95785       79.26828
C         21.58535       36.24168       78.63470
N         21.24610       34.84444       78.35452
H         18.39822       40.98179       78.63168
H         17.93286       38.05389       79.30224
H         19.41651       38.52104       81.31266
H         19.78239       40.14010       80.63402
H         21.58267       38.51118       80.20148
H         20.86007       38.99316       78.62920
H         19.54147       36.86836       78.56203
H         20.13267       36.43608       80.21583
H         22.45125       36.27775       79.33219
H         21.87028       36.74836       77.68628
H         22.07598       34.35952       77.94462
H         20.97006       34.35478       79.23724
H         20.45539       34.79714       77.67059
N         16.11118       40.40857       80.32171
C         14.88360       40.59183       81.09314
C         13.63536       40.36820       80.22461
O         12.53639       40.50562       80.74315
C         14.91728       41.93711       81.84368
C         15.17508       43.12621       80.97200
O         16.27531       43.87296       81.18295
O         14.39409       43.43200       80.08837
H         16.26872       41.04926       79.53439
H         14.80068       39.82473       81.89404
H         15.74099       41.88231       82.59044
H         13.96999       42.08178       82.40662
N         13.72330       39.90003       78.93987
C         12.58102       39.43061       78.15991
C         11.61571       40.48078       77.63871
O         10.66968       40.08931       76.96915
H         14.64884       39.72340       78.52715
H         12.02422       38.67981       78.76001
H         12.97528       38.90831       77.25986
N         11.77635       41.81344       77.86250
C         10.87165       42.84159       77.32709
C         10.91185       43.00945       75.79586
O         10.21197       43.88083       75.29760
C         11.12570       44.19085       78.03772
C         12.53014       44.71836       77.93386
O         13.48145       44.04724       77.25484
O         12.82469       45.73820       78.53467
H         12.55183       42.10541       78.47095
H          9.82667       42.56703       77.59550
H         10.91021       44.04389       79.11878
H         10.41408       44.95628       77.65754
N         11.64376       42.19728       74.97971
C         11.61652       42.27498       73.52587
C         12.49509       43.35396       72.92787
O         12.56603       43.39660       71.70645
H         12.16455       41.41412       75.37937
H         10.56796       42.36038       73.16449
H         12.01960       41.31808       73.12804
N         13.21373       44.23519       73.68348
C         14.14231       45.20530       73.10237
C         15.54501       45.02446       73.67320
O         15.73824       44.23577       74.58906
C         13.62509       46.65291       73.30043
C         12.33066       46.91728       72.51796
O         13.45046       46.95457       74.65962
H         13.11976       44.21402       74.70777
H         14.23753       45.03889       72.00648
H         14.37608       47.36290       72.89240
H         12.63501       46.48827       74.98165
H         12.01641       47.97320       72.66161
H         12.49995       46.74699       71.43340
H         11.51151       46.25202       72.86313
N         16.59004       45.69929       73.11707
C         17.98435       45.58862       73.54111
C         18.51367       46.97256       73.88376
O         18.28886       47.91340       73.13316
C         18.81574       44.87249       72.43390
C         18.38536       43.37735       72.38867
C         20.33325       44.98629       72.70107
C         19.02008       42.56180       71.26338
H         16.39559       46.30496       72.30370
H         18.08116       44.96235       74.45099
H         18.60859       45.36209       71.45655
H         17.28608       43.30959       72.25041
H         18.63765       42.89225       73.35953
H         20.92186       44.50473       71.89577
H         20.65085       46.04962       72.70618
H         20.60245       44.52616       73.67548
H         20.12297       42.51479       71.35689
H         18.64038       41.51878       71.31541
H         18.74403       42.99282       70.27888
N         19.28434       47.14242       74.99568
C         19.81146       48.42550       75.44984
C         21.31737       48.48955       75.26553
O         21.90874       47.54009       74.77752
C         19.45401       48.62044       76.94760
C         17.94804       48.56806       77.17222
O         20.07258       47.61780       77.71510
H         19.52480       46.30950       75.55224
H         19.37576       49.25992       74.85708
H         19.81508       49.61913       77.27948
H         20.08771       47.93294       78.65640
H         17.72412       48.74751       78.24479
H         17.43624       49.34525       76.56836
H         17.56662       47.56463       76.89134
N         22.00438       49.60155       75.64491
C         23.46019       49.72128       75.59657
C         24.11211       48.67063       76.48811
O         24.98216       47.94613       76.02796
C         23.90894       51.14308       76.04467
C         23.45573       52.21629       75.04488
O         23.40058       51.43993       77.32194
H         21.46133       50.39622       76.01362
H         23.82073       49.57403       74.55317
H         25.02327       51.15623       76.07650
H         23.84162       52.27427       77.62930
H         23.88319       52.00712       74.04182
H         22.34997       52.25732       74.96575
H         23.81797       53.21347       75.37442
N         23.72987       48.55234       77.78837
C         24.33845       47.64886       78.76321
C         24.25196       46.19928       78.32239
O         25.27757       45.53388       78.27817
C         23.66842       47.90164       80.12636
C         24.30129       47.12839       81.29235
C         23.76502       47.60772       82.65614
C         24.24621       49.03209       83.01437
N         23.74183       49.45253       84.31945
H         22.96287       49.16199       78.10987
H         25.41240       47.92024       78.87624
H         22.57825       47.68146       80.08069
H         23.79148       48.98627       80.30340
H         25.40670       47.24554       81.28732
H         24.06554       46.04974       81.16124
H         24.14738       46.91687       83.43813
H         22.65407       47.55726       82.66153
H         23.90965       49.77802       82.26708
H         25.35915       49.04228       83.03175
H         22.69820       49.51564       84.29228
H         24.04115       48.77905       85.06046
H         24.12976       50.39815       84.54310
N         23.06710       45.66512       77.92220
C         22.92276       44.30837       77.39178
C         23.89895       44.08156       76.24901
O         24.65847       43.12379       76.30190
C         21.46755       44.07862       76.93187
C         20.51548       44.01222       78.14448
C         19.06743       43.88316       77.77498
O         18.15349       43.72980       78.75042
O         18.70311       43.92608       76.61245
H         22.24361       46.28323       77.93819
H         23.15623       43.55875       78.18135
H         21.38925       43.11475       76.38493
H         21.17736       44.89049       76.23292
H         20.61035       44.91887       78.77588
H         20.79681       43.12669       78.75484
N         23.98320       44.95995       75.21722
C         24.96497       44.82846       74.16376
H         25.98730       44.82322       74.60110
H         24.79635       43.88946       73.59774
H         24.88986       45.69155       73.46807
H         23.36422       45.77466       75.20601
Ca        15.65842       44.61757       77.42097
O         15.06085       47.54287       76.85718
H         14.38588       46.82753       76.93408
H         15.22079       47.82284       77.79184
O         17.20265       46.41401       79.34570
H         16.47608       46.01860       79.88707
H         17.96664       46.49982       79.96885

Ca 1.0



