%chk=holoCaM-CaMKII.loop4.water2.frame194.chk
%nprocshared=20
%mem=10GB
%nosave
#b3lyp/svp scf=(tight,noincore,xqc) Test 
#IOP(5/87=12) Density=Current Pop=(MK,readradii) iop(6/33=2) iop(6/42=6)

holoCaM-CaMKII.loop4.water2.frame194 

   -3  1 
C         22.85446       49.29457       41.33451
C         24.28540       48.92448       41.59953
O         25.06588       48.87064       40.66324
H         22.25464       49.29821       42.26995
H         22.80694       50.30614       40.88182
H         22.40472       48.55704       40.63721
N         24.70051       48.65737       42.86600
C         26.06218       48.26083       43.21303
C         26.41522       46.92720       42.55767
O         25.64781       45.98259       42.68044
C         26.17501       48.20302       44.74624
C         27.53096       47.78823       45.20992
O         28.52928       48.39783       44.86528
O         27.63855       46.73740       46.03307
H         24.00612       48.74364       43.62567
H         26.77383       49.04622       42.87170
H         25.42286       47.49752       45.16279
H         25.96504       49.21671       45.15389
N         27.57908       46.78978       41.85092
C         27.94071       45.59458       41.08235
C         29.06592       44.79256       41.74516
O         29.08241       43.58346       41.55719
C         28.30890       45.99958       39.61326
C         27.12685       46.75608       38.95090
C         28.73271       44.78203       38.76803
C         27.40611       47.26624       37.53419
H         28.23040       47.58701       41.83358
H         27.06563       44.90746       41.03662
H         29.18041       46.68544       39.64961
H         26.89950       47.65072       39.56089
H         26.22620       46.10513       38.92607
H         29.05894       45.09357       37.75583
H         29.61560       44.27933       39.21166
H         27.89963       44.05454       38.67963
H         27.56135       46.43036       36.82308
H         26.52899       47.84510       37.17426
H         28.29421       47.93161       37.52702
N         30.01313       45.36368       42.54627
C         31.10788       44.60240       43.16952
C         30.91873       44.42484       44.67341
O         31.79390       43.85241       45.30817
C         32.47729       45.23028       42.81867
C         32.67113       46.63122       43.33071
O         33.65746       47.26393       42.99155
O         31.73161       47.22217       44.09007
H         29.94921       46.37266       42.73021
H         31.13854       43.56927       42.75840
H         32.55962       45.25496       41.70912
H         33.30230       44.59198       43.20350
N         29.76161       44.79131       45.29374
C         29.45496       44.44722       46.67589
C         30.02548       45.37867       47.73293
O         29.73217       45.14485       48.89694
H         28.99675       45.17615       44.72403
H         29.75263       43.39487       46.87280
H         28.35170       44.47988       46.79711
N         30.81907       46.45038       47.44021
C         31.35071       47.34902       48.47376
C         30.29421       48.24872       49.14203
O         30.66533       49.01434       50.02120
C         32.52064       48.19514       47.91708
C         32.16711       49.13766       46.80085
O         30.91583       49.20656       46.31637
O         33.03591       49.84379       46.31618
H         31.09851       46.59982       46.46251
H         31.80879       46.71978       49.26964
H         33.30852       47.50356       47.54721
H         32.95856       48.78912       48.74918
N         28.97031       48.20059       48.81447
C         27.93976       48.99036       49.47791
C         27.84033       50.43571       49.02136
O         26.91110       51.09812       49.46257
H         28.64617       47.51880       48.12245
H         28.04563       48.91609       50.58192
H         26.95694       48.54062       49.21396
N         28.69647       50.98584       48.11347
C         28.50490       52.30969       47.52279
C         28.31717       52.18195       46.02041
O         28.48195       51.09754       45.47831
C         29.70177       53.23074       47.84744
C         29.70612       53.63846       49.32820
C         30.83654       54.58439       49.64570
N         32.12441       54.17436       49.58372
O         30.58436       55.73271       49.98017
H         29.49114       50.43274       47.77778
H         27.57360       52.78264       47.90440
H         29.61939       54.16837       47.25552
H         30.65260       52.72783       47.56126
H         29.77748       52.74934       49.98931
H         28.74231       54.15424       49.53780
H         32.35769       53.20473       49.32644
H         32.89057       54.82518       49.81382
N         27.93000       53.26387       45.28553
C         27.72917       53.22804       43.84217
C         28.67898       54.21678       43.19846
O         28.54174       55.41685       43.39631
C         26.24392       53.52773       43.48754
C         26.02583       53.70454       41.97423
C         25.33521       52.39346       43.98771
H         27.76226       54.15861       45.77199
H         27.96370       52.21610       43.44110
H         25.93863       54.47735       43.98079
H         26.59714       54.57631       41.59817
H         26.33681       52.79644       41.41655
H         24.95565       53.91152       41.76032
H         25.43243       52.25857       45.08437
H         24.27228       52.62393       43.76043
H         25.59959       51.43707       43.48535
N         29.68512       53.75566       42.40924
C         30.61586       54.61186       41.68636
C         29.89128       55.28341       40.52334
O         28.74004       54.96360       40.27941
C         31.77874       53.71908       41.17432
C         32.93469       54.45873       40.55829
N         33.64283       55.35662       41.28057
O         33.25560       54.22382       39.40371
H         29.79921       52.73918       42.33206
H         31.02208       55.36383       42.39658
H         31.37286       52.98123       40.44727
H         32.19341       53.15120       42.03461
H         33.40046       55.55266       42.26227
H         34.44231       55.85118       40.85861
N         30.50466       56.21022       39.74046
C         29.89790       56.73648       38.51864
C         29.74433       55.61969       37.49417
O         28.65026       55.42809       36.98102
C         30.77065       57.87166       37.94531
C         30.29692       58.33977       36.58618
C         28.99850       58.84620       36.39316
C         31.16710       58.25228       35.48690
C         28.58197       59.24946       35.11881
C         30.75131       58.66044       34.21906
C         29.45575       59.15880       34.02921
O         29.04230       59.55085       32.80734
H         31.44742       56.52997       40.00386
H         28.89866       57.17212       38.74661
H         31.81970       57.51244       37.86452
H         30.76223       58.72537       38.65744
H         28.30544       58.92129       37.22147
H         32.17076       57.86464       35.60943
H         27.57836       59.63088       34.97674
H         31.43780       58.58502       33.38551
H         29.61887       59.50278       32.03102
N         30.81347       54.84037       37.15854
C         30.77249       53.77028       36.15744
C         29.80066       52.63877       36.49912
O         29.63806       51.75481       35.66880
C         32.17860       53.15784       35.95505
C         33.21191       54.17169       35.43630
C         34.55226       53.51746       35.25963
O         35.61601       53.96107       35.95644
O         34.68652       52.58503       34.48295
H         31.70299       55.04208       37.63179
H         30.44103       54.21507       35.19270
H         32.10951       52.33672       35.20679
H         32.52830       52.72276       36.91821
H         33.32664       55.01416       36.14819
H         32.87721       54.58420       34.46029
N         29.09736       52.60602       37.66516
C         28.10448       51.59242       37.98822
C         26.73185       52.20736       37.80601
O         25.94060       51.66436       37.04687
C         28.36635       51.03412       39.40404
C         29.75020       50.36457       39.43304
C         30.09634       49.73905       40.74546
O         30.37045       48.55159       40.79153
O         30.20071       50.47234       41.86538
H         29.22995       53.34681       38.36019
H         28.15978       50.73225       37.28250
H         27.58698       50.28013       39.65197
H         28.32142       51.85010       40.15947
H         30.53728       51.11115       39.20334
H         29.78212       49.57556       38.65056
N         26.40917       53.39315       38.38803
C         25.16669       54.07772       38.11048
H         24.30688       53.46492       38.44770
H         25.15022       55.05623       38.63669
H         25.08342       54.27352       37.01833
H         27.08464       53.85845       39.00129
Ca        31.13491       49.29512       43.51779
O         31.80406       52.24302       44.70771
H         32.28502       52.86470       45.30949
H         32.52273       51.73662       44.25248
O         33.31846       50.54402       41.72807
H         34.06114       50.86247       42.29972
H         33.37242       49.55740       41.77908

Ca 1.0



