%chk=holoCaM-CaMKII.loop3.water2.frame93.chk
%nprocshared=20
%mem=10GB
%nosave
#b3lyp/svp scf=(tight,noincore,xqc) Test 
#IOP(5/87=12) Density=Current Pop=(MK,readradii) iop(6/33=2) iop(6/42=6)

holoCaM-CaMKII.loop3.water2.frame93 

   0  1 
C         13.53655       36.09146       58.90294
C         14.25613       34.87462       59.38817
O         13.82193       33.77719       59.06825
H         12.49620       36.09099       59.28459
H         14.05155       37.02006       59.22332
H         13.51879       36.06804       57.79105
N         15.40957       34.98166       60.10760
C         16.21237       33.80736       60.39383
C         15.57156       32.93969       61.47456
O         15.50620       33.36274       62.62086
C         17.65430       34.20580       60.78091
C         18.61390       33.08737       60.51577
O         19.79393       33.22875       60.76640
O         18.17713       31.96282       59.92246
H         15.78486       35.91921       60.31795
H         16.27314       33.26530       59.42268
H         17.69696       34.54559       61.83933
H         18.00211       35.04382       60.14642
N         15.04254       31.72472       61.16262
C         14.34412       30.87417       62.12318
C         15.32727       30.08210       62.97670
O         15.35042       30.31429       64.17832
C         13.30309       29.99055       61.38327
C         12.17911       30.85312       60.74955
C         11.19273       31.39614       61.81064
C         10.17651       32.41402       61.26642
N         10.81598       33.68102       60.89885
H         15.02860       31.45883       60.17177
H         13.78105       31.51950       62.82437
H         12.83818       29.24572       62.06482
H         13.83142       29.42952       60.58089
H         11.58997       30.23639       60.03610
H         12.64463       31.67014       60.16586
H         11.70821       31.89298       62.65266
H         10.64107       30.52506       62.22749
H          9.44491       32.62198       62.07926
H          9.61738       31.99632       60.40113
H         11.43169       33.55791       60.06675
H         10.07842       34.38217       60.66008
H         11.37501       34.05269       61.70226
N         16.16097       29.12812       62.45816
C         17.10659       28.39087       63.31182
C         18.22942       29.28084       63.85959
O         18.96797       28.81055       64.71417
C         17.73396       27.15768       62.59478
C         18.56188       27.52258       61.39475
O         18.56644       28.80174       61.00797
O         19.17871       26.67628       60.76965
H         16.08983       28.90353       61.45463
H         16.52855       27.98871       64.17290
H         16.93047       26.46141       62.27423
H         18.38480       26.62231       63.32019
N         18.44552       30.55219       63.40537
C         19.50543       31.40418       63.91633
C         20.88470       30.83993       63.65525
O         21.60889       30.61387       64.61468
H         17.83950       30.95252       62.67600
H         19.35395       31.55500       65.00830
H         19.44586       32.40213       63.43052
N         21.33561       30.63438       62.38135
C         22.69926       30.19281       62.08114
C         23.50816       31.29295       61.38994
O         24.67333       31.06445       61.10031
C         22.68313       28.84698       61.30197
C         22.21629       28.88212       59.86508
N         22.09663       27.73533       59.15747
O         21.96536       29.93835       59.32099
H         20.70044       30.84063       61.59670
H         23.23713       29.97969       63.02908
H         22.03624       28.14148       61.86711
H         23.71220       28.42951       61.28493
H         22.30550       26.82429       59.58937
H         21.78653       27.75904       58.17348
N         22.95720       32.51134       61.10141
C         23.66607       33.60655       60.46290
C         23.22524       33.81958       59.02865
O         23.74309       34.74055       58.41030
H         21.98085       32.69708       61.33723
H         24.75948       33.41812       60.44259
H         23.49711       34.53066       61.05940
N         22.34868       32.97739       58.40114
C         22.03260       33.06229       56.98082
C         20.53855       33.10335       56.72814
O         19.76163       32.72494       57.59436
C         22.61459       31.84817       56.22073
C         24.12128       31.77972       56.29018
C         24.77955       31.33430       57.45077
C         24.88501       32.15590       55.17394
C         26.17653       31.27406       57.49168
C         26.27960       32.10627       55.22036
C         26.93121       31.66542       56.37583
O         28.27843       31.62094       56.39999
H         21.93542       32.20251       58.92641
H         22.47646       33.98479       56.54654
H         22.31250       31.94732       55.15549
H         22.18623       30.88811       56.58519
H         24.21625       31.02176       58.31912
H         24.40047       32.50230       54.26978
H         26.67078       30.92337       58.38932
H         26.85322       32.41203       54.35491
H         28.77056       31.32157       57.17743
N         20.07820       33.52482       55.51600
C         18.67703       33.53126       55.10963
C         18.54478       32.68196       53.85418
O         19.30322       32.88447       52.91302
C         18.17554       34.97929       54.84700
C         18.40080       35.93026       56.05309
C         16.68617       34.97305       54.43939
C         17.71432       35.51523       57.35765
H         20.77062       33.86475       54.82829
H         18.03209       33.10420       55.90904
H         18.75375       35.40769       53.99806
H         18.03209       36.94262       55.77791
H         19.49064       36.01987       56.25012
H         16.53211       34.38768       53.50952
H         16.05174       34.52174       55.23138
H         16.33372       36.00727       54.24289
H         18.10523       34.54886       57.72328
H         17.92495       36.28124       58.13252
H         16.61544       35.43765       57.24258
N         17.57993       31.72865       53.76337
C         17.41940       30.82607       52.62913
C         16.10848       31.07779       51.90809
O         15.37078       31.97060       52.29394
C         17.48299       29.37961       53.14797
O         16.43059       29.14388       54.04666
H         16.91165       31.64159       54.53938
H         18.23759       30.96923       51.88987
H         18.46836       29.23736       53.64490
H         17.41364       28.64976       52.31574
H         16.76356       28.50661       54.72976
N         15.76254       30.32395       50.82890
C         14.49373       30.45093       50.11869
C         13.32591       30.06722       51.01448
O         12.38776       30.84069       51.13471
C         14.49611       29.54781       48.87946
H         16.43801       29.61750       50.49674
H         14.36965       31.49624       49.75483
H         13.54133       29.65882       48.32221
H         15.32854       29.84122       48.20436
H         14.62732       28.48102       49.16018
N         13.32982       28.87303       51.67585
C         12.23991       28.40245       52.53119
C         11.91769       29.39930       53.62768
O         10.76621       29.79131       53.75765
C         12.61620       27.05292       53.15856
H         14.16056       28.27041       51.56893
H         11.33002       28.24303       51.91072
H         13.52751       27.14863       53.78812
H         11.78388       26.67588       53.79048
H         12.81606       26.30548       52.36146
N         12.90652       29.87870       54.42883
C         12.70412       30.87833       55.47797
C         12.03538       32.11450       54.89558
O         11.02623       32.55117       55.43073
C         14.05985       31.23546       56.13904
C         14.65983       30.01951       56.88170
C         16.02925       30.28213       57.44269
O         16.94851       30.60310       56.71075
O         16.27480       30.07565       58.74643
H         13.86161       29.54560       54.23734
H         12.03991       30.46985       56.27269
H         13.91805       32.05937       56.87192
H         14.75552       31.59160       55.35031
H         14.75974       29.15569       56.19804
H         13.97460       29.72262       57.70570
N         12.50892       32.68002       53.75293
C         11.89517       33.80914       53.08506
H         11.02360       34.20938       53.64252
H         12.64586       34.61711       52.96400
H         11.55029       33.49268       52.07671
H         13.32253       32.25664       53.30220
Ca        19.30626       30.11790       59.40264
O         19.90349       29.51778       56.08184
H         19.12602       28.92639       55.92468
H         20.54556       29.27510       55.36837
O         18.85931       27.21655       57.92673
H         19.27517       26.71401       57.18223
H         18.24740       26.56543       58.35190

Ca 1.0



