%chk=holoCaM.loop4.water3.frame451.chk
%nprocshared=20
%mem=10GB
%nosave
#b3lyp/svp scf=(tight,noincore,xqc) Test 
#IOP(5/87=12) Density=Current Pop=(MK,readradii) iop(6/33=2) iop(6/42=6)

holoCaM.loop4.water3.frame451 

   -3  1 
C         38.81081       58.70654       35.65349
C         39.77792       57.98559       36.53997
O         39.40071       57.61431       37.64243
H         37.82843       58.82137       36.16215
H         39.20380       59.71055       35.39656
H         38.65776       58.11580       34.72593
N         41.04983       57.72981       36.11533
C         41.96151       56.90225       36.89228
C         43.42096       57.21655       36.57060
O         43.80317       57.16548       35.40999
C         41.66242       55.42131       36.58986
C         42.30720       54.49051       37.57320
O         42.22530       53.28544       37.40460
O         42.89721       54.96782       38.68548
H         41.32408       58.02867       35.16689
H         41.77159       57.08808       37.97295
H         41.99907       55.18587       35.55650
H         40.57062       55.22637       36.64889
N         44.29805       57.50740       37.57407
C         45.71524       57.81165       37.38181
C         46.61075       56.72148       37.99289
O         47.78424       56.70356       37.64538
C         46.00448       59.22928       37.99516
C         45.19628       60.31489       37.23180
C         47.50490       59.59503       38.01853
C         45.18876       61.68002       37.92625
H         43.94068       57.51184       38.53198
H         45.95367       57.82598       36.29528
H         45.65762       59.20722       39.05343
H         44.13356       60.00768       37.15703
H         45.59185       60.42218       36.19817
H         47.92519       59.60825       36.99130
H         47.67589       60.58217       38.49077
H         48.07881       58.88442       38.64603
H         44.56143       62.38867       37.34558
H         44.75166       61.57610       38.94059
H         46.20079       62.12320       38.00487
N         46.17218       55.81928       38.92764
C         47.07695       54.88460       39.60940
C         46.61101       53.42136       39.63467
O         47.35282       52.60017       40.15576
C         47.37137       55.41864       41.03105
C         46.18528       55.55493       41.94938
O         45.06134       55.24288       41.59365
O         46.37292       56.04502       43.18920
H         45.20316       55.87759       39.25788
H         48.06114       54.87029       39.09274
H         47.82796       56.42764       40.92689
H         48.11933       54.76053       41.52250
N         45.43211       53.00345       39.08728
C         45.00278       51.60530       39.04070
C         44.73090       50.93066       40.38508
O         44.42830       49.74599       40.37045
H         44.84066       53.68728       38.61169
H         45.78608       51.02177       38.51024
H         44.07232       51.53464       38.43772
N         44.84813       51.58075       41.57680
C         44.75176       50.90951       42.87699
C         43.39188       50.30219       43.22764
O         43.38157       49.32171       43.95970
C         45.23275       51.83079       44.02620
C         44.52858       53.15652       44.15847
O         43.70488       53.52393       43.33999
O         44.85894       53.97855       45.17118
H         45.10771       52.57330       41.56313
H         45.47573       50.06382       42.86816
H         46.30822       52.05915       43.87236
H         45.13399       51.27795       44.98560
N         42.21660       50.87028       42.84566
C         40.90537       50.39694       43.28351
C         40.15174       51.46550       44.06033
O         38.98153       51.25836       44.34826
H         42.24374       51.69945       42.24100
H         40.96992       49.48524       43.91849
H         40.31626       50.13446       42.37913
N         40.75786       52.63042       44.43513
C         40.09702       53.74566       45.09379
C         40.26159       55.01200       44.20987
O         39.95850       54.69687       42.88114
C         40.74242       53.97268       46.47914
C         40.55167       52.77409       47.41785
C         41.12098       53.06942       48.78273
N         42.44324       53.30759       48.94910
O         40.37658       53.09476       49.75156
H         41.75032       52.75475       44.24496
H         39.01067       53.53766       45.21802
H         40.28463       54.84743       46.97954
H         41.82671       54.18291       46.34403
H         41.04212       51.86701       47.00447
H         39.46191       52.57158       47.51484
H         43.09095       53.28312       48.14846
H         42.82240       53.51444       49.88519
N         39.37441       56.09264       44.65248
C         39.52250       57.38375       43.95168
C         40.44451       58.35156       44.70130
O         40.33692       58.48770       45.91248
C         38.09393       57.96338       43.75531
C         38.08940       59.41399       43.25720
C         37.32462       57.09429       42.74202
H         39.31140       56.22276       45.68470
H         39.94092       57.24301       42.93136
H         37.56047       57.95335       44.73123
H         37.04739       59.77089       43.11711
H         38.55687       60.07781       44.01120
H         38.62656       59.49846       42.29441
H         37.26671       56.03892       43.07956
H         36.29015       57.47354       42.60833
H         37.83351       57.11638       41.75131
N         41.28273       59.16144       43.98591
C         42.10408       60.23428       44.54550
C         41.46327       61.57132       44.18608
O         40.48461       61.58151       43.45906
C         43.53312       60.11191       43.94791
C         44.54351       61.12929       44.41540
N         44.94639       61.16852       45.70540
O         45.03235       61.90595       43.60824
H         41.26358       59.08319       42.96025
H         42.13307       60.15688       45.65448
H         43.44515       60.19007       42.84208
H         43.95175       59.11571       44.18411
H         44.56905       60.50410       46.39535
H         45.65472       61.85404       46.00822
N         41.91926       62.74196       44.70067
C         41.33813       64.04780       44.37727
C         41.55039       64.42921       42.91217
O         40.59906       64.87803       42.28804
C         41.79542       65.12292       45.39020
C         43.28776       65.23267       45.58234
C         43.86995       64.71911       46.75578
C         44.10768       65.83753       44.62143
C         45.24880       64.78503       46.95106
C         45.49045       65.91340       44.82495
C         46.06513       65.37917       45.98690
O         47.39663       65.43140       46.18760
H         42.68417       62.69231       45.38684
H         40.23548       64.00099       44.54030
H         41.35035       64.80785       46.36077
H         41.35385       66.11675       45.15869
H         43.25727       64.24731       47.51451
H         43.67623       66.25410       43.72153
H         45.68088       64.36944       47.85233
H         46.11731       66.38303       44.07907
H         47.99834       65.82708       45.54159
N         42.73993       64.20751       42.27441
C         42.96689       64.49650       40.84809
C         42.08965       63.66334       39.90843
O         42.16892       63.87528       38.70405
C         44.43991       64.21199       40.45783
C         45.47802       65.08676       41.17006
C         45.32563       66.54179       40.82434
O         45.42792       66.91106       39.66519
O         45.09292       67.44889       41.79083
H         43.50935       63.80981       42.82749
H         42.74223       65.56998       40.66366
H         44.57748       64.36597       39.36383
H         44.66204       63.14650       40.68230
H         46.49167       64.75956       40.85391
H         45.40760       64.93629       42.26188
N         41.23889       62.70812       40.36692
C         40.41309       61.85957       39.52513
C         38.96450       62.28136       39.69433
O         38.31592       62.59619       38.70749
C         40.61003       60.38781       39.93903
C         42.08449       59.94752       39.93408
C         42.25110       58.55634       40.48082
O         43.36804       58.12747       40.71791
O         41.17995       57.79041       40.75776
H         41.16805       62.54259       41.37201
H         40.69065       61.96220       38.45154
H         40.00637       59.72735       39.28008
H         40.24830       60.27273       40.97898
H         42.65976       60.62612       40.59749
H         42.51261       60.00525       38.91236
N         38.40561       62.35900       40.93524
C         37.05623       62.81793       41.16624
H         36.33246       62.13330       40.68019
H         36.85318       62.83870       42.25984
H         36.93472       63.84853       40.77054
H         38.96194       62.11548       41.75876
Ca        41.87505       55.18111       41.74731
O         43.05407       56.79558       43.92532
H         43.80810       56.90173       43.29392
H         43.17035       55.89399       44.31084
O         41.42929       52.80641       40.15529
H         42.13859       52.17181       39.88659
H         40.63859       52.24013       40.33524
O         39.83551       55.09937       39.46259
H         39.53664       55.99327       39.76107
H         39.05485       54.51148       39.61672

Ca 1.0



