%chk=holoCaM.loop2.water1.frame322.chk
%nprocshared=20
%mem=10GB
%nosave
#b3lyp/svp scf=(tight,noincore,xqc) Test 
#IOP(5/87=12) Density=Current Pop=(MK,readradii) iop(6/33=2) iop(6/42=6)

holoCaM.loop2.water1.frame322 

   -2  1 
C          7.78352       32.31589      -10.80227
C          6.46257       31.60060      -10.70426
O          5.48692       32.21105      -10.30093
H          8.58133       31.64835      -11.19330
H          7.68406       33.16894      -11.50949
H          8.09338       32.70210       -9.81113
N          6.34720       30.31251      -11.12407
C          5.06460       29.63177      -11.28000
C          4.52480       29.07563       -9.95999
O          5.26126       28.39643       -9.25861
C          5.24153       28.48567      -12.29552
C          3.94325       27.97003      -12.84418
O          3.95249       27.03419      -13.62575
O          2.77956       28.58656      -12.56712
H          7.19339       29.85871      -11.50273
H          4.35317       30.34981      -11.74745
H          5.82558       27.66404      -11.82823
H          5.80607       28.86056      -13.17717
N          3.22052       29.26984       -9.60256
C          2.59941       28.74697       -8.38350
C          1.42907       27.79116       -8.66182
O          0.81161       27.34482       -7.70391
C          2.08325       29.93573       -7.56437
H          2.62677       29.81306      -10.23696
H          3.34390       28.19860       -7.76632
H          1.30508       30.48864       -8.13524
H          1.63918       29.59110       -6.60560
H          2.91680       30.63104       -7.33262
N          1.05299       27.43860       -9.92688
C         -0.16982       26.68506      -10.22546
C         -0.16210       25.95239      -11.58056
O         -1.17343       25.34128      -11.89918
C         -1.38774       27.63129      -10.10294
C         -1.32341       28.83443      -10.99945
O         -0.28541       29.03828      -11.82721
O         -2.21648       29.66491      -10.95286
H          1.57565       27.84088      -10.70131
H         -0.30006       25.87919       -9.46973
H         -1.44771       28.00511       -9.05873
H         -2.32575       27.07528      -10.31696
N          0.93236       25.89707      -12.39775
C          0.98961       25.10805      -13.62208
C          0.13063       25.59032      -14.77934
O          0.15774       24.92277      -15.80405
H          1.81093       26.33385      -12.10883
H          0.71684       24.05831      -13.37913
H          2.03856       25.10215      -13.98962
N         -0.65418       26.70579      -14.72491
C         -1.52020       27.10554      -15.83976
C         -0.76535       27.66605      -17.06255
O         -1.42712       28.03534      -18.02297
C         -2.61727       28.07883      -15.34868
C         -2.12166       29.42557      -14.92702
N         -2.99197       30.35478      -14.47899
O         -0.93626       29.69042      -14.99517
H         -0.69772       27.24237      -13.84769
H         -2.08772       26.20640      -16.16630
H         -3.14724       27.61417      -14.48808
H         -3.35690       28.23438      -16.16291
H         -3.99877       30.15016      -14.40888
H         -2.65514       31.28336      -14.20547
N          0.59993       27.73160      -17.12441
C          1.33325       28.17073      -18.30889
C          1.39860       29.67522      -18.52153
O          2.00340       30.07864      -19.50504
H          1.15923       27.36177      -16.34737
H          0.91613       27.66621      -19.20777
H          2.38964       27.83995      -18.20833
N          0.84542       30.56588      -17.65132
C          0.93336       32.01828      -17.80020
C          1.59180       32.66584      -16.58714
O          1.73208       32.03131      -15.55280
C         -0.49397       32.60605      -17.98876
C         -1.07835       32.21671      -19.34545
O         -1.36620       32.14551      -16.98603
H          0.34058       30.20581      -16.84076
H          1.55959       32.28720      -18.67864
H         -0.46703       33.71955      -17.97416
H         -1.06852       32.54068      -16.12844
H         -0.44394       32.62394      -20.16115
H         -1.14598       31.11358      -19.44905
H         -2.09832       32.64593      -19.44965
N          1.94662       33.98201      -16.63755
C          2.33503       34.75428      -15.46422
C          1.08047       35.44498      -14.98313
O          0.44803       36.15772      -15.75137
C          3.46413       35.79019      -15.77779
C          4.79758       35.07013      -16.10233
C          3.66170       36.75991      -14.58611
C          5.91104       36.02140      -16.56152
H          1.76617       34.49981      -17.51148
H          2.70715       34.09141      -14.65009
H          3.14762       36.39484      -16.65603
H          4.63069       34.33944      -16.92064
H          5.14977       34.51258      -15.20512
H          2.72736       37.31249      -14.36293
H          3.97779       36.20891      -13.67635
H          4.40953       37.54412      -14.80815
H          6.19001       36.75361      -15.77708
H          6.82555       35.43814      -16.79659
H          5.59380       36.56870      -17.47411
N          0.69337       35.30365      -13.68935
C         -0.46398       35.96762      -13.11058
C          0.02773       37.10504      -12.25778
O          1.22490       37.34960      -12.23424
C         -1.27800       34.97085      -12.27157
C         -1.66879       33.77953      -13.07436
O         -0.69328       33.04096      -13.62946
O         -2.83710       33.43768      -13.15603
H          1.28662       34.75041      -13.05470
H         -1.11794       36.39428      -13.90301
H         -2.18697       35.45111      -11.85124
H         -0.65289       34.60632      -11.42652
N         -0.83460       37.89256      -11.56897
C         -0.37612       39.05900      -10.83755
C          0.56494       38.73916       -9.67116
O          1.60229       39.38303       -9.62098
C         -1.54814       39.95029      -10.40694
C         -1.03020       41.25651       -9.84894
C         -0.21766       42.10228      -10.63436
C         -1.33639       41.63312       -8.53400
C          0.29001       43.28790      -10.10306
C         -0.83379       42.82775       -8.01008
C         -0.01776       43.65125       -8.79149
H         -1.84715       37.70283      -11.63211
H          0.19948       39.66251      -11.57187
H         -2.18275       39.41105       -9.67297
H         -2.17407       40.17902      -11.29748
H          0.03782       41.84714      -11.65510
H         -1.95913       41.00053       -7.91451
H          0.92415       43.92234      -10.70971
H         -1.07320       43.11230       -6.99503
H          0.37652       44.57127       -8.38194
N          0.32956       37.79690       -8.69747
C          1.26891       37.54304       -7.60834
C          2.53252       36.82152       -8.07532
O          3.40145       36.58235       -7.24750
C          0.44537       36.72313       -6.61497
C         -0.42544       35.90370       -7.54007
C         -0.83244       36.93685       -8.59768
H          1.57158       38.48985       -7.10790
H          1.03486       36.15882       -5.85969
H         -0.23482       37.41959       -6.07283
H          0.23777       35.14532       -8.01611
H         -1.27348       35.37456       -7.05643
H         -1.06407       36.39015       -9.53340
H         -1.69876       37.54880       -8.27084
N          2.72717       36.49769       -9.38596
C          3.95270       35.92369       -9.92216
C          4.73748       36.97996      -10.69207
O          5.93083       36.79652      -10.88288
C          3.60547       34.77051      -10.88066
C          2.70807       33.71091      -10.22385
C          2.27115       32.63383      -11.17316
O          2.67963       32.58291      -12.32358
O          1.37487       31.72928      -10.74660
H          1.98572       36.69408      -10.06135
H          4.59505       35.55714       -9.09063
H          4.53522       34.31554      -11.28135
H          3.04750       35.20139      -11.73705
H          1.78024       34.19943       -9.86114
H          3.22629       33.24805       -9.35810
N          4.12937       38.10416      -11.17471
C          4.79717       39.15555      -11.90499
H          5.87658       38.95331      -12.04667
H          4.31482       39.26981      -12.89915
H          4.67362       40.10769      -11.34681
H          3.12783       38.24359      -11.04215
Ca        -0.31279       31.00643      -12.85122
O          2.44191       29.45160      -15.20141
H          3.18319       30.04797      -14.92823
H          2.89304       28.61925      -15.48350

Ca 1.0



