%chk=holoCaM-CaMKII.loop2.water2.frame79.chk
%nprocshared=20
%mem=10GB
%nosave
#b3lyp/svp scf=(tight,noincore,xqc) Test 
#IOP(5/87=12) Density=Current Pop=(MK,readradii) iop(6/33=2) iop(6/42=6)

holoCaM-CaMKII.loop2.water2.frame79 

   -2  1 
C         -6.65926       76.27162       79.98196
C         -8.06474       76.76853       79.79539
O         -8.58488       76.71975       78.69072
H         -6.01782       77.09046       80.37015
H         -6.65867       75.43848       80.71821
H         -6.23381       75.89856       79.02680
N         -8.75054       77.24261       80.86835
C        -10.14276       77.67427       80.82028
C        -10.34035       78.90389       79.94361
O         -9.67621       79.90708       80.16417
C        -10.62836       77.97766       82.24916
C        -12.08828       78.30089       82.26444
O        -12.51766       79.49299       82.71943
O        -12.89060       77.48045       81.85485
H         -8.26450       77.24478       81.77965
H        -10.75517       76.82822       80.43508
H        -10.04767       78.82256       82.67907
H        -10.47195       77.08199       82.88873
N        -11.29018       78.89999       78.96204
C        -11.58096       80.04135       78.09943
C        -13.03306       80.52230       78.21350
O        -13.37488       81.44237       77.48241
C        -11.28301       79.64708       76.64621
H        -11.84148       78.04279       78.82100
H        -10.92063       80.90020       78.34852
H        -10.22934       79.30842       76.54881
H        -11.95529       78.83162       76.31192
H        -11.43048       80.51343       75.96634
N        -13.94253       79.98154       79.08918
C        -15.36118       80.39134       79.09834
C        -16.20567       79.94155       80.31211
O        -17.37829       80.29145       80.33351
C        -16.03551       79.91056       77.78798
C        -15.98769       78.41643       77.63261
O        -16.35682       77.90318       76.58875
O        -15.50761       77.63788       78.61951
H        -13.61177       79.25117       79.72385
H        -15.39926       81.50287       79.12970
H        -15.50227       80.35136       76.92120
H        -17.09005       80.25543       77.72968
N        -15.71015       79.23820       81.37300
C        -16.48244       78.94027       82.57316
C        -17.57635       77.89388       82.43186
O        -18.25150       77.66050       83.42488
H        -14.72446       78.98590       81.40737
H        -16.91943       79.88760       82.95695
H        -15.78735       78.55716       83.35255
N        -17.81727       77.20573       81.27748
C        -18.88325       76.20251       81.16185
C        -18.65926       74.92389       81.99623
O        -19.51925       74.05480       81.94928
C        -19.13717       75.84042       79.67776
C        -18.00208       75.13594       78.98350
N        -18.15042       74.71911       77.70704
O        -16.95078       74.93003       79.56466
H        -17.26314       77.43382       80.44255
H        -19.82852       76.67527       81.51079
H        -19.37369       76.76835       79.11247
H        -20.02947       75.17920       79.62675
H        -19.03157       74.88105       77.19819
H        -17.38622       74.22063       77.23242
N        -17.56687       74.73969       82.79672
C        -17.38273       73.57709       83.65899
C        -16.77786       72.35801       82.98019
O        -16.55613       71.37790       83.67723
H        -16.87990       75.49258       82.89329
H        -18.34108       73.32283       84.16341
H        -16.66423       73.85767       84.45898
N        -16.46361       72.33423       81.65388
C        -15.83819       71.19530       80.97904
C        -14.54942       71.61526       80.27750
O        -14.21018       72.79063       80.27458
C        -16.82660       70.61253       79.93066
C        -18.07270       70.02551       80.59232
O        -17.22182       71.60301       79.01420
H        -16.68456       73.15411       81.08286
H        -15.57867       70.39262       81.70416
H        -16.35999       69.76215       79.38320
H        -16.49576       71.68741       78.34228
H        -18.63350       70.80453       81.14912
H        -18.73954       69.59621       79.81389
H        -17.78436       69.21142       81.29152
N        -13.82692       70.68747       79.58402
C        -12.73640       71.01645       78.67082
C        -13.26617       70.83643       77.25880
O        -14.18127       70.05182       77.04181
C        -11.46648       70.15671       78.96413
C        -10.85824       70.58668       80.32393
C        -10.41666       70.27368       77.83559
C         -9.66454       69.73969       80.77401
H        -14.14049       69.70495       79.60312
H        -12.46497       72.09264       78.76085
H        -11.77378       69.08836       79.01277
H        -11.63563       70.50920       81.11328
H        -10.53158       71.64789       80.26243
H        -10.83839       69.92870       76.86940
H        -10.06147       71.31893       77.72827
H         -9.54705       69.61278       78.01799
H         -9.31096       70.10076       81.76264
H         -9.96189       68.67449       80.86741
H         -8.80926       69.82566       80.07375
N        -12.78432       71.62518       76.26092
C        -13.32597       71.64798       74.91083
C        -12.25158       71.26286       73.91963
O        -11.12373       71.00274       74.32013
C        -13.80371       73.07426       74.57539
C        -14.65996       73.69926       75.62620
O        -15.75047       74.16694       75.34355
O        -14.13178       73.89190       76.84611
H        -12.02399       72.28307       76.47944
H        -14.18286       70.94590       74.81810
H        -14.34449       73.08111       73.60604
H        -12.91301       73.73699       74.49196
N        -12.52808       71.22260       72.58856
C        -11.50605       70.94344       71.59638
C        -10.43905       72.04429       71.55122
O         -9.27341       71.68741       71.62630
C        -12.12074       70.68631       70.20639
C        -11.10356       70.04133       69.29152
C        -10.67545       70.67804       68.11658
C        -10.57231       68.77642       69.61791
C         -9.72516       70.06368       67.29163
C         -9.62377       68.17036       68.79477
C         -9.19858       68.81346       67.63220
H        -13.49868       71.38147       72.27538
H        -11.02816       69.98976       71.90595
H        -12.52476       71.62828       69.78371
H        -12.96815       69.97271       70.30131
H        -11.07062       71.64764       67.84212
H        -10.89029       68.25368       70.51153
H         -9.39403       70.55697       66.38792
H         -9.22030       67.20142       69.06118
H         -8.46249       68.34028       66.99587
N        -10.71781       73.39140       71.46001
C         -9.68696       74.42735       71.43790
C         -8.94865       74.60372       72.76570
O         -8.07713       75.46128       72.81137
C        -10.45759       75.69346       71.03508
C        -11.80449       75.45676       71.67317
C        -12.03894       73.98355       71.35081
H         -8.92767       74.22114       70.65211
H         -9.96535       76.65899       71.28318
H        -10.62708       75.66695       69.93427
H        -11.67704       75.56534       72.77437
H        -12.62078       76.13546       71.34519
H        -12.76977       73.60579       72.07637
H        -12.41074       73.84681       70.31359
N         -9.20271       73.83432       73.86652
C         -8.46380       73.95411       75.12314
C         -7.67909       72.68444       75.44380
O         -6.95165       72.69378       76.42738
C         -9.44521       74.21770       76.27665
C        -10.33843       75.44045       76.04157
C        -11.38867       75.57863       77.10581
O        -12.22526       76.45680       77.00269
O        -11.45236       74.72585       78.14746
H         -9.94959       73.13285       73.82944
H         -7.73299       74.79021       75.06500
H         -8.88989       74.34009       77.23325
H        -10.09316       73.32517       76.36519
H        -10.87330       75.32458       75.07713
H         -9.71977       76.36288       76.00066
N         -7.78492       71.55221       74.68704
C         -7.07619       70.32226       74.97179
H         -6.41145       70.40760       75.85558
H         -7.81359       69.51342       75.16143
H         -6.46103       70.04389       74.09061
H         -8.40751       71.52732       73.87488
Ca       -14.76368       75.62135       78.07318
O        -14.48072       75.11910       81.96871
H        -14.68301       75.88998       82.55512
H        -14.09536       74.44325       82.58038
O        -11.54146       74.24025       81.15932
H        -11.26395       74.68612       81.99831
H        -10.69593       74.09838       80.66460

Ca 1.0



