%chk=holoCaM.loop3.water2.frame423.chk
%nprocshared=20
%mem=10GB
%nosave
#b3lyp/svp scf=(tight,noincore,xqc) Test 
#IOP(5/87=12) Density=Current Pop=(MK,readradii) iop(6/33=2) iop(6/42=6)

holoCaM.loop3.water2.frame423 

   0  1 
C         -5.44082       91.44366       73.83986
C         -5.51368       90.72151       75.14468
O         -6.52111       90.07893       75.41075
H         -5.30839       92.52873       74.02610
H         -4.58299       91.05532       73.25321
H         -6.37490       91.28662       73.25838
N         -4.46463       90.76625       76.01520
C         -4.50042       90.04728       77.27536
C         -5.61779       90.61450       78.14362
O         -5.58283       91.78480       78.49694
C         -3.12498       90.06098       77.97965
C         -3.09359       89.08921       79.12454
O         -4.19192       88.37393       79.39935
O         -2.07320       88.91155       79.75810
H         -3.61707       91.29249       75.75306
H         -4.70746       88.98408       77.02164
H         -2.86520       91.08397       78.32526
H         -2.35407       89.72067       77.25400
N         -6.68505       89.82868       78.44791
C         -7.90548       90.29972       79.09848
C         -7.64991       90.82981       80.50041
O         -8.30161       91.78621       80.89557
C         -8.93003       89.14418       79.10710
C        -10.38951       89.56133       79.33057
C        -11.28707       88.31509       79.22327
C        -12.77868       88.66336       79.19266
N        -13.58780       87.44609       79.10360
H         -6.65621       88.85210       78.11906
H         -8.32454       91.11358       78.46519
H         -8.62098       88.37055       79.84260
H         -8.91570       88.69184       78.09031
H        -10.66738       90.28178       78.52925
H        -10.52934       90.05101       80.31799
H        -11.06917       87.63837       80.07856
H        -11.05802       87.77317       78.27854
H        -12.98217       89.30093       78.30258
H        -13.06056       89.23008       80.10613
H        -13.32027       86.89098       78.25757
H        -13.45024       86.86275       79.96083
H        -14.59748       87.70594       79.02826
N         -6.70896       90.25345       81.30285
C         -6.41360       90.69067       82.66356
C         -4.98897       91.23637       82.76499
O         -4.85056       92.35111       83.25148
C         -6.78813       89.58122       83.66874
C         -6.16904       88.23882       83.42034
O         -6.87424       87.29406       83.10401
O         -4.85515       88.04843       83.59943
H         -6.17497       89.45437       80.93318
H         -7.07674       91.53757       82.95559
H         -7.89123       89.45269       83.59196
H         -6.56474       89.90626       84.70776
N         -3.90089       90.57931       82.25499
C         -2.56442       91.17722       82.22319
C         -1.46075       90.32513       82.82435
O         -0.33706       90.80720       82.86441
H         -4.03623       89.67320       81.78882
H         -2.55267       92.15383       82.75367
H         -2.29348       91.37705       81.16483
N         -1.67480       89.06879       83.31146
C         -0.62665       88.27418       83.95471
C          0.52220       87.87826       83.02202
O          1.49895       87.32792       83.51023
C         -1.23320       87.02215       84.63577
C         -1.71248       85.95296       83.67653
N         -1.22224       84.69332       83.75704
O         -2.56001       86.21443       82.83777
H         -2.62305       88.69027       83.28119
H         -0.21096       88.90684       84.76991
H         -2.08697       87.34212       85.27246
H         -0.46832       86.58299       85.31097
H         -0.51694       84.44218       84.46489
H         -1.55948       83.95783       83.11990
N          0.46418       88.09752       81.67682
C          1.51336       87.74705       80.73386
C          1.07831       86.66898       79.75931
O          1.86132       86.35371       78.87371
H         -0.37190       88.52554       81.27834
H          2.42264       87.37431       81.25382
H          1.79543       88.66356       80.17354
N         -0.09877       85.98950       79.90946
C         -0.44307       84.80937       79.12462
C         -1.87543       84.83629       78.65069
O         -2.75176       85.15651       79.44106
C         -0.27826       83.55424       80.00063
C          1.16287       83.36153       80.38589
C          1.71486       84.04416       81.48269
C          1.97717       82.51590       79.61850
C          3.06555       83.88330       81.80248
C          3.32702       82.36160       79.93488
C          3.87696       83.04610       81.02813
O          5.18115       82.90998       81.33862
H         -0.71702       86.21780       80.70104
H          0.23480       84.67425       78.25146
H         -0.60841       82.67530       79.40226
H         -0.92296       83.58145       80.90382
H          1.10216       84.70248       82.08600
H          1.56986       81.99118       78.76281
H          3.48261       84.41549       82.64802
H          3.94390       81.71506       79.32441
H          5.77485       82.34890       80.81943
N         -2.19779       84.33723       77.42104
C         -3.57570       84.07545       77.01631
C         -3.81077       82.57931       76.85131
O         -2.87176       81.80825       76.70297
C         -3.98525       84.84772       75.72586
C         -3.04955       84.51801       74.53034
C         -4.04119       86.35586       76.01449
C         -3.52638       85.09496       73.19562
H         -1.43753       84.03394       76.79327
H         -4.26667       84.39001       77.82728
H         -5.01931       84.53059       75.45943
H         -2.99773       83.41621       74.39899
H         -2.02328       84.89327       74.73129
H         -4.42811       86.91951       75.14175
H         -4.74139       86.54777       76.85539
H         -3.03840       86.74773       76.28495
H         -3.55304       86.20255       73.21240
H         -2.82254       84.78897       72.39222
H         -4.53507       84.70293       72.94683
N         -5.08877       82.11948       76.88023
C         -5.51282       80.74470       76.66439
C         -6.42962       80.69385       75.44705
O         -6.67492       81.72668       74.83785
C         -6.23297       80.22597       77.92638
O         -7.37114       81.00230       78.19726
H         -5.82240       82.80512       77.06197
H         -4.63594       80.08933       76.47122
H         -5.54380       80.27355       78.79775
H         -6.51836       79.15960       77.77519
H         -8.01141       80.41925       78.68312
N         -6.96894       79.51732       75.02568
C         -7.85599       79.41160       73.86859
C         -9.12794       80.21709       74.06246
O         -9.47106       80.99745       73.18665
C         -8.21641       77.94885       73.60589
H         -6.72877       78.65768       75.54322
H         -7.32261       79.77919       72.96254
H         -7.29017       77.36444       73.42070
H         -8.75563       77.50879       74.47084
H         -8.85927       77.87713       72.70199
N         -9.87264       80.08083       75.19605
C        -11.08942       80.84698       75.45759
C        -10.80937       82.33781       75.42489
O        -11.46732       83.06383       74.69294
C        -11.65822       80.47150       76.83579
H         -9.54143       79.41881       75.91520
H        -11.85852       80.59736       74.69382
H        -12.58947       81.04280       77.03847
H        -11.89641       79.38772       76.86902
H        -10.92806       80.69139       77.64524
N         -9.82830       82.85226       76.21124
C         -9.50909       84.27538       76.31702
C         -9.01800       84.87918       75.00012
O         -8.95584       86.09671       74.90472
C         -8.43220       84.39990       77.40412
C         -8.02665       85.78879       77.88247
C         -6.97808       85.67994       78.96793
O         -6.56976       86.78605       79.59989
O         -6.48399       84.60590       79.27780
H         -9.30287       82.18220       76.79412
H        -10.43430       84.80088       76.64115
H         -7.54349       83.89473       77.00954
H         -8.79641       83.85437       78.30371
H         -8.92322       86.29088       78.29433
H         -7.61175       86.39703       77.04953
N         -8.62860       84.09328       73.95544
C         -8.15987       84.60077       72.68236
H         -7.11575       84.26167       72.51431
H         -8.79828       84.19128       71.87081
H         -8.18783       85.70826       72.62824
H         -8.63661       83.07592       74.06038
Ca        -4.71791       86.79216       80.86550
O         -4.27158       83.41192       81.10261
H         -4.82604       82.69617       80.70311
H         -3.35326       83.04299       81.10642
O         -5.37874       84.77858       83.51872
H         -5.19033       83.82048       83.67981
H         -5.87141       85.07240       84.32544

Ca 1.0



