%chk=holoCaM.loop1.water2.frame5.chk
%nprocshared=20
%mem=10GB
%nosave
#b3lyp/svp scf=(tight,noincore,xqc) Test 
#IOP(5/87=12) Density=Current Pop=(MK,readradii) iop(6/33=2) iop(6/42=6)

holoCaM.loop1.water2.frame5 

   0  1 
C         91.16464       55.70803       23.68837
C         92.53565       55.68744       23.07517
O         93.07952       56.73912       22.77908
H         90.46186       55.13480       23.04760
H         91.20054       55.23418       24.69334
H         90.78828       56.74655       23.79818
N         93.16100       54.49462       22.88887
C         94.51065       54.32837       22.34574
C         94.53060       54.70254       20.85424
O         94.21472       53.86375       20.02195
C         94.89481       52.84472       22.57392
C         96.28966       52.34615       22.31971
O         97.36539       53.12933       22.09874
O         96.46256       51.14380       22.41426
H         92.64883       53.65553       23.20730
H         95.19916       54.96752       22.94019
H         94.20052       52.22442       21.96704
H         94.70451       52.59975       23.64326
N         94.79648       55.98074       20.45552
C         94.72007       56.43878       19.06166
C         95.76984       55.83247       18.12611
O         95.57188       55.94756       16.92429
C         94.86698       57.98684       18.98986
C         93.71349       58.78502       19.63562
C         92.56504       59.14840       18.66983
C         91.83233       57.96745       18.02379
N         90.76070       58.44360       17.14815
H         94.97434       56.67206       21.19188
H         93.73275       56.12576       18.67704
H         94.99974       58.35808       17.94978
H         95.80862       58.23106       19.52561
H         94.12839       59.77029       19.94374
H         93.34693       58.28945       20.55832
H         92.98022       59.78507       17.85734
H         91.82900       59.76031       19.23627
H         91.40458       57.31385       18.81544
H         92.54189       57.38518       17.40161
H         90.27864       57.62202       16.71727
H         90.06380       58.99980       17.69432
H         91.16025       59.03545       16.38288
N         96.92758       55.25672       18.56666
C         97.96130       54.73073       17.66905
C         98.29698       53.26113       17.93786
O         99.16550       52.73404       17.25601
C         99.21508       55.64062       17.68018
C         99.99169       55.71500       18.96439
O        100.99508       56.40832       19.01456
O         99.61520       55.02705       20.05301
H         97.10885       55.23599       19.56886
H         97.60291       54.77105       16.61752
H         98.89920       56.67159       17.40685
H         99.91283       55.28462       16.89071
N         97.61265       52.51263       18.85348
C         97.80900       51.07694       19.01700
C         99.07184       50.65336       19.74956
O         99.24810       49.45426       19.91400
H         96.83592       52.93760       19.37801
H         97.76081       50.58750       18.02030
H         96.96289       50.68041       19.61923
N         99.97120       51.54327       20.26013
C        101.14851       51.13800       21.04089
C        100.80965       50.51194       22.40489
O        101.73119       50.14044       23.11966
C        102.10898       52.33636       21.22465
C        101.53856       53.50627       21.98146
O        102.23047       54.49581       22.15666
O        100.27679       53.49007       22.45330
H         99.82474       52.54231       20.07614
H        101.71376       50.38305       20.45081
H        102.41524       52.69447       20.21803
H        103.02473       51.99010       21.75243
N         99.52594       50.34490       22.82797
C         99.14855       49.75360       24.09880
C         99.47642       50.65980       25.25576
O        100.12562       50.22074       26.18585
H         98.75696       50.62619       22.21853
H         99.60368       48.74527       24.21328
H         98.04420       49.62485       24.11291
N         98.99112       51.93365       25.26271
C         99.12479       52.89966       26.36144
C         98.33615       54.18286       26.05772
O         97.93319       54.42956       24.93171
C        100.61050       53.28082       26.70514
C        101.18916       52.52509       27.90666
O        101.47148       53.11319       25.60864
H         98.44558       52.20755       24.43486
H         98.62563       52.46931       27.25712
H        100.65288       54.34079       27.04605
H        101.04053       53.53385       24.82681
H        102.20348       52.92081       28.13169
H        100.55234       52.68961       28.80168
H        101.29944       51.44323       27.74024
N         98.04821       55.02794       27.08853
C         97.28174       56.26549       26.96909
C         98.13898       57.40057       27.50500
O         98.65673       57.28900       28.60630
C         95.93242       56.12192       27.74137
C         95.04727       55.06222       27.02283
C         95.19271       57.47523       27.83027
C         93.72457       54.75229       27.72734
H         98.36326       54.76012       28.03304
H         97.01909       56.48795       25.91219
H         96.14696       55.78592       28.78029
H         95.60438       54.10440       26.95189
H         94.82140       55.40456       25.98755
H         94.94826       57.86269       26.81863
H         94.25941       57.38492       28.42091
H         95.81046       58.22709       28.36307
H         93.06300       55.64039       27.77218
H         93.18197       53.96937       27.15529
H         93.91423       54.37519       28.75382
N         98.27877       58.55317       26.78723
C         99.06546       59.69386       27.24072
C         98.14518       60.81422       27.68161
O         96.93475       60.70933       27.54931
C        100.01535       60.20943       26.11465
C        101.00527       59.15700       25.61926
O         99.28909       60.74070       25.03420
H         97.74613       58.65587       25.91884
H         99.67763       59.40866       28.12311
H        100.63462       61.03656       26.51900
H         98.95379       59.98857       24.48379
H        100.44857       58.32432       25.15285
H        101.66994       59.60573       24.84876
H        101.62739       58.77931       26.45613
N         98.68645       61.94433       28.21020
C         97.91131       63.13189       28.55388
C         97.20958       63.67076       27.32097
O         96.07585       64.11767       27.42367
C         98.83142       64.22892       29.14282
C         99.43578       63.79059       30.48483
O         99.85459       64.53637       28.23014
H         99.70883       61.97215       28.32926
H         97.14583       62.88169       29.32254
H         98.20891       65.13582       29.32367
H        100.31918       65.34020       28.57937
H        100.06199       64.60817       30.89930
H         98.62648       63.56752       31.21151
H        100.07426       62.89030       30.37222
N         97.83837       63.64636       26.11425
C         97.24422       64.13491       24.87722
C         95.99302       63.34405       24.54113
O         94.93398       63.93036       24.36829
C         98.25781       64.04245       23.70207
C         99.61465       64.73730       23.96367
C         99.47311       66.21644       24.35766
C        100.82379       66.91454       24.59023
N        101.54030       66.38056       25.75171
H         98.78582       63.24837       26.08328
H         96.96718       65.20299       25.00210
H         97.78888       64.49436       22.80060
H         98.47854       62.97789       23.46631
H        100.22786       64.65904       23.03948
H        100.16187       64.19065       24.75360
H         98.87717       66.31696       25.28891
H         98.94049       66.74328       23.53740
H        100.61929       67.99262       24.77304
H        101.45766       66.83282       23.68089
H        102.41432       66.93524       25.89651
H        100.94729       66.47161       26.60705
H        101.81116       65.38266       25.60769
N         96.05850       61.98884       24.43774
C         94.92588       61.13931       24.07529
C         93.83966       61.12824       25.14862
O         92.77722       60.57976       24.88970
C         95.41849       59.69476       23.84623
C         96.48875       59.61125       22.73560
C         97.11263       58.25402       22.71069
O         97.65205       57.79611       23.70187
O         97.07714       57.51843       21.60162
H         96.97095       61.55220       24.61394
H         94.49325       61.52175       23.12387
H         94.57097       59.02389       23.58021
H         95.84526       59.33770       24.80767
H         97.31320       60.32671       22.89659
H         96.02690       59.85153       21.75359
N         94.03996       61.68131       26.38040
C         93.04679       61.70300       27.43341
H         92.08591       61.24430       27.12278
H         93.43698       61.15196       28.31518
H         92.85620       62.75629       27.72978
H         94.94677       62.09677       26.61164
Ca        97.50520       55.34872       21.88786
O        100.33014       58.08905       22.10979
H        100.19673       57.46813       21.35141
H         99.99268       58.95862       21.77780
O        100.99941       55.99523       24.92571
H        100.83578       55.74374       23.98347
H        101.93262       56.32475       24.93883

Ca 1.0



