%chk=holoCaM-CaMKII.loop3.water2.frame8.chk
%nprocshared=20
%mem=10GB
%nosave
#b3lyp/svp scf=(tight,noincore,xqc) Test 
#IOP(5/87=12) Density=Current Pop=(MK,readradii) iop(6/33=2) iop(6/42=6)

holoCaM-CaMKII.loop3.water2.frame8 

   0  1 
C         61.43762       63.67097       30.34527
C         60.68404       62.93056       31.40773
O         60.65047       61.70984       31.35403
H         62.49977       63.34536       30.35748
H         60.99968       63.44056       29.35171
H         61.40192       64.76767       30.51019
N         60.07377       63.59558       32.43028
C         59.38919       62.88495       33.50116
C         58.15158       62.18849       32.95421
O         57.26043       62.86925       32.46339
C         59.00653       63.84622       34.64278
C         58.60906       63.09782       35.88304
O         58.31725       63.71608       36.88959
O         58.66363       61.75084       35.91449
H         60.14884       64.62405       32.47179
H         60.12057       62.15331       33.91530
H         58.19919       64.53892       34.31717
H         59.89301       64.45774       34.91730
N         58.05664       60.82834       32.95545
C         56.99183       60.12781       32.24147
C         55.69862       59.98421       33.03212
O         54.70713       59.63142       32.40704
C         57.46191       58.73458       31.76460
C         58.74047       58.74886       30.90274
C         58.60204       59.57738       29.61747
C         59.87953       59.49649       28.77194
N         59.75284       60.30441       27.55959
H         58.85962       60.29517       33.31341
H         56.74338       60.72051       31.33452
H         56.64886       58.25791       31.17401
H         57.65537       58.09614       32.65401
H         58.97412       57.69649       30.63152
H         59.59254       59.13759       31.49371
H         58.42243       60.64305       29.87205
H         57.74329       59.19683       29.02312
H         60.07203       58.43741       28.49085
H         60.74663       59.86314       29.36505
H         58.95074       59.96279       26.98174
H         59.60368       61.30882       27.81154
H         60.63254       60.22363       27.00056
N         55.61268       60.19592       34.38164
C         54.34733       60.06938       35.11574
C         53.93773       61.36923       35.79832
O         52.86554       61.40357       36.38642
C         54.39940       58.88615       36.11066
C         55.30533       59.06525       37.29879
O         55.41204       58.07229       38.20165
O         55.91062       60.10631       37.48166
H         56.46692       60.43297       34.90650
H         53.52648       59.82577       34.40693
H         54.70758       57.97445       35.55433
H         53.37663       58.70905       36.50922
N         54.72105       62.48509       35.74796
C         54.33226       63.75479       36.32584
C         54.21840       63.71926       37.82965
O         53.16088       64.05876       38.34193
H         55.61636       62.47094       35.24167
H         53.37362       64.08671       35.86983
H         55.10494       64.51364       36.07389
N         55.29595       63.39676       38.60284
C         55.30894       63.56134       40.05594
C         56.28861       64.66152       40.48036
O         56.34361       64.95665       41.66558
C         55.56923       62.21352       40.77951
C         56.93485       61.59865       40.58480
N         57.24558       60.42863       41.18884
O         57.77149       62.15163       39.89679
H         56.15912       63.09030       38.13179
H         54.30828       63.90116       40.40058
H         54.80307       61.48128       40.44414
H         55.43531       62.37142       41.87168
H         56.55816       59.94243       41.78218
H         58.17969       60.00894       41.06593
N         57.08323       65.31626       39.57450
C         58.00381       66.39186       39.91451
C         59.45986       65.98978       39.75567
O         60.31593       66.83490       39.97588
H         57.05446       65.06003       38.58134
H         57.87292       66.71477       40.96953
H         57.77531       67.26349       39.26480
N         59.81949       64.70220       39.48218
C         61.18250       64.19621       39.57574
C         61.52935       63.31784       38.39038
O         60.78865       62.39162       38.09384
C         61.28484       63.36084       40.86771
C         61.00177       64.22173       42.07651
C         59.86630       63.98800       42.86995
C         61.86266       65.28331       42.40595
C         59.59309       64.80954       43.96811
C         61.58878       66.10079       43.50441
C         60.45046       65.86805       44.28848
O         60.17088       66.65416       45.34739
H         59.08545       64.00238       39.35171
H         61.92024       65.02418       39.64992
H         62.29965       62.91804       40.96980
H         60.55226       62.52487       40.81092
H         59.18489       63.18039       42.63222
H         62.74455       65.48181       41.80986
H         58.71078       64.62594       44.56787
H         62.26016       66.91656       43.74158
H         60.73688       67.39830       45.59836
N         62.70383       63.49520       37.72673
C         63.18367       62.58414       36.69469
C         64.05482       61.53704       37.36331
O         64.98282       61.89461       38.07643
C         63.96787       63.36220       35.59790
C         63.04783       64.41521       34.93074
C         64.54016       62.38659       34.54435
C         63.78081       65.33867       33.95612
H         63.35674       64.21552       38.07313
H         62.32901       62.07458       36.19232
H         64.81886       63.88811       36.08599
H         62.60847       65.06834       35.71443
H         62.21691       63.90475       34.39868
H         65.22194       61.65160       35.01695
H         63.72231       61.83464       34.03241
H         65.14898       62.91572       33.78590
H         64.60266       65.87084       34.48120
H         64.19412       64.78237       33.09183
H         63.06851       66.09151       33.55857
N         63.83395       60.21406       37.12534
C         64.65070       59.14500       37.68690
C         65.59561       58.61282       36.63105
O         65.55404       59.07328       35.50218
C         63.73697       58.02335       38.21823
O         62.98184       57.48042       37.16734
H         63.10519       59.95599       36.44515
H         65.27443       59.52899       38.52291
H         63.06112       58.44794       38.99168
H         64.34635       57.21669       38.67996
H         62.29930       56.89097       37.58115
N         66.50068       57.64497       36.93462
C         67.37742       57.04684       35.93480
C         66.55249       56.29259       34.90688
O         66.72999       56.51271       33.71692
C         68.37186       56.09390       36.60265
H         66.55775       57.31384       37.91029
H         67.98189       57.84021       35.43822
H         68.98859       56.65547       37.33723
H         67.84826       55.26929       37.12970
H         69.05296       55.66275       35.83763
N         65.60222       55.40013       35.31599
C         64.76879       54.60493       34.41197
C         63.85420       55.42107       33.49457
O         63.18264       54.81343       32.67205
C         63.90407       53.64207       35.23812
H         65.48671       55.26250       36.33248
H         65.44560       53.99826       33.77129
H         63.30842       52.97810       34.57665
H         64.55056       53.00312       35.87685
H         63.21033       54.21441       35.89270
N         63.78328       56.78030       33.55071
C         62.96245       57.59725       32.66548
C         63.87426       58.35695       31.71768
O         63.69349       58.23540       30.51394
C         62.05627       58.52197       33.50428
C         61.04707       57.68805       34.31674
C         60.15531       58.54106       35.17032
O         60.68381       59.33703       36.11663
O         58.94316       58.48673       35.03917
H         64.34382       57.28395       34.24371
H         62.29626       56.97055       32.03001
H         61.49713       59.20451       32.83046
H         62.67995       59.14444       34.18240
H         61.58733       56.98648       34.98428
H         60.42290       57.08915       33.61634
N         64.91793       59.10010       32.18130
C         65.88260       59.75702       31.32236
H         66.88657       59.31318       31.49968
H         65.64162       59.64225       30.24503
H         65.92249       60.83774       31.56759
H         65.07489       59.17247       33.19045
Ca        58.55820       60.53763       37.80500
O         60.77501       59.66953       39.64363
H         60.50738       58.88761       40.18858
H         61.35288       60.20445       40.24302
O         58.82935       57.59689       38.27990
H         58.08568       57.42454       37.64973
H         59.16008       56.69817       38.52933

Ca 1.0



