%chk=holoCaM-CaMKII.loop3.water2.frame32.chk
%nprocshared=20
%mem=10GB
%nosave
#b3lyp/svp scf=(tight,noincore,xqc) Test 
#IOP(5/87=12) Density=Current Pop=(MK,readradii) iop(6/33=2) iop(6/42=6)

holoCaM-CaMKII.loop3.water2.frame32 

   0  1 
C         35.03796       77.29345       23.26043
C         35.33522       78.18633       22.09681
O         34.94898       77.86450       20.98115
H         34.43259       77.85380       24.00539
H         34.45792       76.40409       22.93365
H         35.98579       76.96211       23.72990
N         35.98025       79.36855       22.29595
C         36.16432       80.32617       21.21953
C         37.25858       79.87731       20.26040
O         38.41144       79.80902       20.66476
C         36.46565       81.72404       21.79625
C         36.31876       82.79289       20.75833
O         36.37943       83.96221       21.08587
O         36.00441       82.45953       19.49394
H         36.23745       79.63243       23.26021
H         35.18194       80.40846       20.70090
H         37.46928       81.76291       22.27272
H         35.70076       81.94457       22.57354
N         36.96155       79.53940       18.97280
C         37.96724       79.09225       18.01594
C         38.90020       80.23626       17.63751
O         40.08489       80.15492       17.93069
C         37.27251       78.50293       16.76370
C         38.24718       77.88142       15.75022
C         37.47216       77.36203       14.52728
C         38.34341       76.59979       13.51482
N         39.40219       77.42959       12.93860
H         35.97487       79.54577       18.68246
H         38.54648       78.26670       18.48911
H         36.66757       79.28645       16.26136
H         36.57134       77.70600       17.09722
H         38.78796       77.04169       16.23889
H         38.98413       78.64385       15.42126
H         36.97470       78.21678       14.01755
H         36.68242       76.66010       14.87403
H         37.67951       76.24495       12.69479
H         38.79160       75.70576       14.00154
H         38.99458       78.28809       12.50246
H         40.10127       77.69281       13.66877
H         39.89635       76.87824       12.19994
N         38.43844       81.31099       16.92986
C         39.31490       82.37594       16.44101
C         39.80147       83.31539       17.54306
O         40.65625       84.14311       17.25834
C         38.63188       83.15368       15.29368
C         37.36290       83.82924       15.71781
O         36.29930       83.51343       15.20892
O         37.39584       84.79223       16.65289
H         37.44654       81.32130       16.65263
H         40.20706       81.89330       15.98207
H         38.40102       82.43475       14.47613
H         39.32332       83.92024       14.88236
N         39.31279       83.25564       18.81540
C         39.80552       84.08486       19.90305
C         39.59566       85.56940       19.68322
O         40.57957       86.29560       19.67993
H         38.58540       82.56774       19.04835
H         40.88893       83.87455       20.04609
H         39.28413       83.80037       20.84205
N         38.34328       86.09721       19.53433
C         38.08834       87.53721       19.40217
C         37.21885       88.08917       20.53331
O         36.99317       89.29170       20.55152
C         37.47579       87.84720       18.01734
C         36.02766       87.43868       17.87190
N         35.09804       88.31207       17.42268
O         35.68686       86.30672       18.14977
H         37.54728       85.44785       19.51731
H         39.05611       88.08177       19.44454
H         38.08878       87.32887       17.24929
H         37.55216       88.93738       17.81761
H         35.35216       89.27540       17.16443
H         34.11746       88.01215       17.31051
N         36.69189       87.28223       21.50225
C         35.87163       87.75273       22.60514
C         34.46800       87.17071       22.59551
O         33.75655       87.41071       23.55891
H         36.88484       86.27603       21.48943
H         35.77981       88.86027       22.61350
H         36.37559       87.45080       23.54885
N         33.97539       86.44801       21.54080
C         32.60189       85.93747       21.49712
C         32.56137       84.45223       21.16124
O         33.56954       83.88123       20.78528
C         31.82897       86.67778       20.39198
C         31.70825       88.16078       20.62124
C         32.63472       89.04155       20.04285
C         30.64033       88.68086       21.36870
C         32.49528       90.42148       20.20106
C         30.49676       90.06411       21.52180
C         31.42315       90.93925       20.93377
O         31.29023       92.27483       21.05949
H         34.56351       86.30373       20.70841
H         32.09254       86.08862       22.47351
H         30.80721       86.25967       20.25597
H         32.36208       86.51126       19.43214
H         33.46293       88.65835       19.46791
H         29.90977       88.01734       21.81476
H         33.21612       91.08779       19.74395
H         29.66090       90.45440       22.08824
H         30.55257       92.67558       21.54070
N         31.37859       83.77489       21.25521
C         31.18399       82.39226       20.82053
C         29.96957       82.36492       19.89841
O         28.91844       82.83367       20.31123
C         30.92669       81.44226       22.03088
C         32.05405       81.55063       23.08864
C         30.80052       79.98385       21.52573
C         31.76791       80.73639       24.35565
H         30.56701       84.27131       21.65177
H         32.08884       82.01175       20.29522
H         29.97302       81.74359       22.51844
H         32.14632       82.60912       23.41076
H         33.02704       81.23225       22.65368
H         31.74986       79.65226       21.04903
H         30.54805       79.28068       22.34201
H         29.98591       79.88781       20.78375
H         32.57292       80.90938       25.09931
H         30.80051       81.05244       24.80257
H         31.73636       79.64774       24.15076
N         30.01372       81.76024       18.67703
C         28.82836       81.61307       17.83062
C         28.33595       80.17966       17.87976
O         28.97078       79.34841       18.50159
C         29.15011       82.02743       16.38626
O         29.53603       83.37170       16.34802
H         30.88730       81.30556       18.38204
H         27.99469       82.24376       18.20776
H         28.24950       81.89446       15.74721
H         29.97294       81.38386       15.99711
H         29.79367       83.55656       15.40714
N         27.17437       79.82383       17.26372
C         26.66377       78.45462       17.25972
C         27.63390       77.52921       16.55454
O         27.97269       76.48830       17.10056
C         25.30302       78.39807       16.56148
H         26.63333       80.55629       16.78024
H         26.50351       78.10720       18.30581
H         24.91168       77.35782       16.58174
H         24.58084       79.05012       17.09784
H         25.38068       78.73580       15.50676
N         28.16143       77.88851       15.35026
C         29.13555       77.09475       14.60673
C         30.30574       76.69238       15.48266
O         30.63290       75.51582       15.54278
C         29.64904       77.90733       13.40810
H         27.88591       78.80607       14.96471
H         28.64691       76.17397       14.21947
H         30.38378       77.31573       12.82237
H         28.80437       78.18134       12.74093
H         30.14108       78.84507       13.75013
N         30.95898       77.62935       16.21636
C         32.09333       77.33743       17.08865
C         31.71988       76.31398       18.15012
O         32.34661       75.26461       18.19528
C         32.58225       78.64750       17.73112
C         33.17425       79.58726       16.66428
C         33.40608       80.94734       17.23052
O         32.91634       81.92787       16.69465
O         34.12073       81.09153       18.35308
H         30.61122       78.59897       16.15609
H         32.92793       76.91679       16.48303
H         33.36827       78.44481       18.49261
H         31.72401       79.12907       18.24640
H         32.50113       79.70108       15.78897
H         34.13197       79.15578       16.30357
N         30.70236       76.54343       19.02460
C         30.27945       75.60010       20.03946
H         29.21822       75.32464       19.86157
H         30.88711       74.67145       20.03666
H         30.36209       76.07424       21.03977
H         30.18699       77.42497       18.96852
Ca        35.00532       83.78724       17.98933
O         34.12315       85.45142       15.57921
H         34.70312       85.75226       14.83567
H         33.20102       85.60825       15.25640
O         32.00967       84.77941       17.62350
H         31.21089       85.35893       17.54601
H         31.64494       83.87604       17.78819

Ca 1.0



