%chk=holoCaM-CaMKII.loop1.water2.frame97.chk
%nprocshared=20
%mem=10GB
%nosave
#b3lyp/svp scf=(tight,noincore,xqc) Test 
#IOP(5/87=12) Density=Current Pop=(MK,readradii) iop(6/33=2) iop(6/42=6)

holoCaM-CaMKII.loop1.water2.frame97 

   0  1 
C          6.64969       48.50874       50.70893
C          5.24474       48.27460       50.24459
O          4.46420       47.69950       50.98889
H          7.24930       49.03300       49.93483
H          6.63778       49.12907       51.62893
H          7.13044       47.53250       50.92665
N          4.84551       48.70102       49.01570
C          3.49456       48.49791       48.51376
C          3.22488       46.99916       48.37932
O          3.93900       46.32468       47.65116
C          3.33790       49.24208       47.17101
C          1.93543       49.29892       46.64837
O          1.72315       49.87571       45.59870
O          0.90637       48.76947       47.32945
H          5.52675       49.20374       48.42488
H          2.78712       48.96880       49.23509
H          3.99696       48.77770       46.40660
H          3.65623       50.29919       47.31336
N          2.21610       46.41925       49.08726
C          1.90678       44.98768       49.10046
C          0.56186       44.67879       48.45312
O          0.25409       43.50118       48.32863
C          1.93063       44.48041       50.57068
C          3.35398       44.19016       51.08277
C          3.82488       42.80698       50.58030
C          5.24755       42.43185       51.01518
N          6.25701       43.20267       50.28955
H          1.63158       47.03628       49.66066
H          2.63767       44.42161       48.48674
H          1.33854       43.54842       50.70362
H          1.43914       45.24583       51.20951
H          3.33143       44.13212       52.19404
H          4.03389       45.01864       50.79724
H          3.75930       42.72394       49.47652
H          3.13365       42.05077       51.01652
H          5.40289       41.35419       50.78254
H          5.36724       42.56200       52.11369
H          6.15737       43.03199       49.26160
H          6.16532       44.22297       50.48935
H          7.20673       42.88239       50.58652
N         -0.27590       45.65102       47.99130
C         -1.52912       45.37471       47.28690
C         -1.56662       46.01438       45.89679
O         -2.58488       45.88888       45.23097
C         -2.72748       45.76585       48.17709
C         -2.78615       47.20169       48.61070
O         -1.93269       48.11884       48.12367
O         -3.59382       47.52736       49.46405
H         -0.02586       46.63234       48.14750
H         -1.64624       44.28146       47.11910
H         -2.63872       45.15326       49.10249
H         -3.68501       45.49033       47.68530
N         -0.47937       46.64543       45.35637
C         -0.43891       47.14743       43.98798
C         -1.24012       48.41131       43.72262
O         -1.22246       48.86132       42.58539
H          0.40235       46.68533       45.88525
H         -0.75767       46.33813       43.29642
H          0.61619       47.39922       43.74208
N         -1.93411       49.06538       44.69679
C         -2.66680       50.31676       44.47033
C         -1.76868       51.54221       44.20133
O         -2.30967       52.63274       44.07967
C         -3.63351       50.58798       45.65174
C         -2.99286       50.77480       46.99833
O         -1.78491       50.70380       47.14267
O         -3.77465       51.00087       48.06960
H         -1.97158       48.64261       45.63184
H         -3.33180       50.18245       43.58821
H         -4.33501       49.72927       45.73167
H         -4.23747       51.49353       45.42667
N         -0.41236       51.45209       44.05898
C          0.45509       52.58939       43.76934
C          0.75018       53.48447       44.96281
O          1.49804       54.43671       44.78563
H          0.03639       50.53418       44.07317
H          0.03278       53.17656       42.92467
H          1.44140       52.19763       43.43792
N          0.23063       53.24854       46.20000
C          0.51593       54.06021       47.38352
C          1.05134       53.21911       48.53913
O          1.06419       51.99615       48.47027
C         -0.77076       54.81936       47.83411
C         -0.99402       56.06802       46.98804
O         -1.92238       54.01897       47.73827
H         -0.40658       52.45593       46.31566
H          1.31645       54.80308       47.16928
H         -0.66555       55.18489       48.87940
H         -1.69376       53.11884       48.07063
H         -0.13592       56.76292       47.11530
H         -1.10765       55.81069       45.91548
H         -1.91123       56.58990       47.33765
N          1.54234       53.85969       49.64106
C          2.06026       53.21339       50.84362
C          1.29618       53.76836       52.04116
O          1.32306       54.97514       52.25071
C          3.59095       53.49953       50.98529
C          4.36903       52.88819       49.79033
C          4.13854       52.95179       52.32143
C          5.85291       53.26985       49.76517
H          1.56844       54.89229       49.62288
H          1.92515       52.10905       50.79222
H          3.74014       54.60288       50.97963
H          3.93330       53.25923       48.83928
H          4.27498       51.77946       49.80481
H          3.62530       53.43045       53.17426
H          4.00323       51.85130       52.38456
H          5.21010       53.19300       52.45913
H          6.33138       52.83184       48.86449
H          5.96192       54.37467       49.72168
H          6.39931       52.88247       50.64778
N          0.62056       52.94426       52.89093
C         -0.03168       53.42096       54.11203
C          0.97043       53.45430       55.25115
O          2.10335       53.05949       55.05353
C         -1.22882       52.50799       54.49290
C         -2.26798       52.45339       53.37912
O         -0.77145       51.20934       54.76264
H          0.66232       51.93060       52.72240
H         -0.41747       54.45276       53.95286
H         -1.71551       52.92462       55.40272
H         -1.52883       50.70614       55.16087
H         -3.13685       51.83857       53.69465
H         -2.62502       53.47306       53.12269
H         -1.81062       51.96968       52.49887
N          0.62355       53.90493       56.48524
C          1.52293       53.82969       57.63767
C          1.82908       52.37648       57.98100
O          2.98971       52.04573       58.17663
C          0.92635       54.56136       58.86327
C          0.85874       56.07523       58.60580
O         -0.34845       54.05401       59.16558
H         -0.32483       54.28839       56.61413
H          2.48518       54.34287       57.40800
H          1.60943       54.39473       59.72875
H         -0.63889       54.48584       60.01092
H          1.87623       56.46861       58.39026
H          0.19667       56.31060       57.74729
H          0.47495       56.59883       59.50604
N          0.82912       51.45048       58.03428
C          1.02879       50.03681       58.35987
C          2.08012       49.41143       57.45385
O          3.03517       48.82952       57.94845
C         -0.32698       49.29699       58.23326
C         -0.29560       47.85272       58.75659
C         -1.68867       47.20818       58.62405
C         -1.76317       45.77439       59.17746
N         -1.59941       45.72809       60.63255
H         -0.12635       51.76874       57.80965
H          1.36758       49.96053       59.41652
H         -0.66670       49.31005       57.17362
H         -1.07862       49.84805       58.84073
H          0.01250       47.88386       59.82159
H          0.44206       47.24967       58.18394
H         -1.95124       47.17404       57.54375
H         -2.45180       47.82877       59.14352
H         -0.99923       45.13372       58.68501
H         -2.76662       45.36260       58.92731
H         -2.33084       46.31643       61.09483
H         -1.71523       44.74039       60.95553
H         -0.64909       46.05390       60.91547
N          1.97105       49.53707       56.10612
C          2.92738       49.00240       55.13918
C          4.31604       49.56807       55.39058
O          5.25864       48.79839       55.51382
C          2.42518       49.27782       53.69741
C          1.09200       48.52893       53.47868
C          0.52066       48.63285       52.10347
O          0.16939       49.80878       51.55222
O          0.28370       47.60639       51.49171
H          1.16800       50.07415       55.75805
H          2.99116       47.89589       55.24624
H          3.17522       48.90108       52.96931
H          2.29577       50.36902       53.52950
H          0.31095       48.89280       54.16897
H          1.26066       47.45037       53.69546
N          4.50348       50.90282       55.54884
C          5.78496       51.48903       55.87088
H          6.50569       51.30924       55.04759
H          5.66922       52.58547       56.01629
H          6.17339       51.05381       56.81684
H          3.69618       51.52156       55.48777
Ca        -0.78311       49.42168       49.55624
O         -3.08157       49.48650       51.56388
H         -3.78409       49.66558       52.23687
H         -3.48159       49.78145       50.70768
O         -2.28577       52.43187       50.23461
H         -2.24301       53.40559       50.41087
H         -3.21436       52.18068       50.46285

Ca 1.0



