%chk=holoCaM-CaMKII.loop4.water1.frame11.chk
%nprocshared=20
%mem=10GB
%nosave
#b3lyp/svp scf=(tight,noincore,xqc) Test 
#IOP(5/87=12) Density=Current Pop=(MK,readradii) iop(6/33=2) iop(6/42=6)

holoCaM-CaMKII.loop4.water1.frame11 

   -3  1 
C         52.33105       53.89291       32.14723
C         51.42283       53.33948       33.19845
O         50.91514       54.07838       34.02561
H         53.32216       53.39766       32.23353
H         51.90657       53.67029       31.14472
H         52.45633       54.98767       32.26051
N         51.17653       52.00938       33.20074
C         50.32198       51.32193       34.15336
C         50.89217       51.41600       35.57487
O         52.05193       51.07832       35.76005
C         50.21018       49.86200       33.66801
C         49.24268       49.07772       34.44268
O         48.99088       47.93364       34.12743
O         48.68850       49.62139       35.51698
H         51.61859       51.45294       32.45121
H         49.29916       51.77001       34.11671
H         51.19488       49.35386       33.69658
H         49.82464       49.87386       32.62453
N         50.12257       51.85533       36.62324
C         50.63270       52.07302       37.98477
C         50.05057       51.07364       39.00232
O         50.62310       50.96837       40.08033
C         50.38569       53.56758       38.41290
C         50.85736       54.53811       37.29614
C         51.06362       53.91831       39.75485
C         50.59628       56.01913       37.58058
H         49.14283       52.08000       36.43367
H         51.72946       51.89232       37.97410
H         49.28938       53.71639       38.53556
H         50.28172       54.30560       36.38169
H         51.93844       54.39407       37.08363
H         50.68050       53.29744       40.58525
H         52.16520       53.80003       39.67914
H         50.83592       54.96052       40.05681
H         50.85637       56.61732       36.68096
H         49.52585       56.18046       37.82030
H         51.22083       56.39147       38.41641
N         48.94725       50.29719       38.75319
C         48.42637       49.30072       39.69135
C         48.40957       47.87411       39.12407
O         47.97414       46.97334       39.81832
C         47.05921       49.72801       40.27598
C         45.83447       49.94285       39.40528
O         45.75135       49.84107       38.06788
O         44.79534       50.20665       39.98143
H         48.44088       50.41823       37.86938
H         49.09054       49.23558       40.58694
H         47.21585       50.67117       40.84562
H         46.77517       48.95405       41.02631
N         48.96357       47.58643       37.90785
C         49.12249       46.23701       37.38363
C         47.84103       45.53834       36.97671
O         47.59856       44.45052       37.48483
H         49.40446       48.33556       37.37189
H         49.67775       45.62392       38.12898
H         49.75442       46.29045       36.47152
N         47.00765       46.05677       36.02142
C         45.84757       45.32649       35.48833
C         45.86425       45.14461       33.95748
O         45.10035       44.32321       33.47196
C         44.53018       45.96512       35.97466
C         44.26035       47.35778       35.47184
O         45.01002       47.90276       34.68440
O         43.16364       48.01330       35.89256
H         47.21276       47.00134       35.67219
H         45.85937       44.29610       35.90738
H         44.55898       45.99767       37.08494
H         43.67642       45.32309       35.66968
N         46.68651       45.86680       33.13869
C         46.81569       45.67680       31.69813
C         46.45139       46.90326       30.87253
O         46.70202       46.87402       29.67603
H         47.27957       46.58364       33.54542
H         46.21119       44.82000       31.33341
H         47.88416       45.44301       31.49877
N         45.82187       47.98830       31.41045
C         45.42725       49.17049       30.64004
C         45.90276       50.44716       31.32531
O         46.42087       50.36593       32.43158
C         43.89548       49.14461       30.41642
C         43.05829       49.18349       31.71304
C         41.57871       48.98598       31.47108
N         40.72183       48.98888       32.51843
O         41.14658       48.80419       30.34149
H         45.56128       47.95710       32.39865
H         45.89847       49.13875       29.63343
H         43.66546       48.19920       29.87573
H         43.59138       49.99082       29.76226
H         43.21750       50.15784       32.22246
H         43.37271       48.36730       32.39337
H         41.06623       49.13611       33.47859
H         39.71235       48.83914       32.37128
N         45.77383       51.66750       30.71698
C         46.19579       52.91639       31.35251
C         44.98879       53.83774       31.47607
O         44.48593       54.31972       30.47033
C         47.36892       53.57859       30.57012
C         47.84863       54.87302       31.25205
C         48.56338       52.61595       30.45575
H         45.36807       51.71431       29.76956
H         46.57796       52.70573       32.37430
H         47.02800       53.83011       29.54140
H         47.03079       55.61883       31.31270
H         48.22205       54.65986       32.27622
H         48.67626       55.33261       30.66951
H         49.39281       53.09388       29.89080
H         48.93766       52.33646       31.46355
H         48.27601       51.69154       29.91348
N         44.45255       54.08823       32.70416
C         43.29232       54.94644       32.94650
C         43.67269       56.41098       32.70934
O         44.83486       56.68459       32.45991
C         42.86029       54.74817       34.42958
C         41.49436       55.24505       34.84409
N         41.17770       55.29532       36.15764
O         40.65359       55.55602       34.01615
H         44.86821       53.60229       33.50603
H         42.47181       54.61305       32.27406
H         43.63458       55.22307       35.06812
H         42.85079       53.66359       34.67373
H         41.86389       55.01564       36.87258
H         40.25070       55.62630       36.46254
N         42.75760       57.41451       32.80415
C         43.09956       58.82894       32.73576
C         43.98571       59.22641       33.90727
O         45.02723       59.82238       33.67062
C         41.81285       59.68272       32.74176
C         42.10514       61.15808       32.59232
C         42.74258       61.64601       31.43743
C         41.73834       62.06017       33.60434
C         43.01260       63.01023       31.30155
C         42.00829       63.42490       33.46542
C         42.64767       63.90417       32.31276
O         42.91445       65.21744       32.16574
H         41.77197       57.17844       32.93101
H         43.62862       59.02473       31.77706
H         41.25276       59.48861       33.68334
H         41.16341       59.37252       31.89450
H         43.03054       60.97302       30.63989
H         41.24498       61.70879       34.50194
H         43.50539       63.37230       30.40783
H         41.72003       64.10810       34.25409
H         42.67794       65.86906       32.84103
N         43.63636       58.93072       35.19886
C         44.44304       59.34539       36.34978
C         45.88289       58.88710       36.22569
O         46.77185       59.56045       36.72810
C         43.84015       58.86871       37.69912
C         43.92230       57.34480       37.92242
C         43.31198       56.95047       39.23870
O         42.37684       56.16691       39.27378
O         43.80944       57.44142       40.39043
H         42.76806       58.39893       35.36479
H         44.43836       60.45764       36.36075
H         42.77958       59.19872       37.75475
H         44.39425       59.36408       38.52747
H         44.98382       57.01881       37.93967
H         43.40686       56.81690       37.09566
N         46.17285       57.71469       35.60133
C         47.52435       57.20229       35.45787
C         48.26855       58.03503       34.43025
O         49.31421       58.58383       34.74817
C         47.49343       55.68995       35.12759
C         46.72815       54.93518       36.24327
C         46.76469       53.44362       36.13674
O         47.05416       52.71684       37.23108
O         46.44319       52.87597       35.10852
H         45.39230       57.15289       35.23205
H         48.04682       57.27747       36.43515
H         48.53850       55.31968       35.06938
H         46.99638       55.50678       34.15018
H         45.66324       55.23051       36.22506
H         47.13787       55.21109       37.23911
N         47.74572       58.22391       33.18813
C         48.36087       59.07580       32.19433
H         49.35835       58.68069       31.91398
H         47.72090       59.11511       31.28547
H         48.46083       60.10956       32.59019
H         46.85393       57.78023       32.94912
Ca        46.61171       49.60442       36.06780
O         43.84285       52.21693       37.06947
H         43.29976       52.96862       37.41354
H         44.43965       51.99045       37.82419

Ca 1.0



