%chk=holoCaM.loop1.water2.frame435.chk
%nprocshared=20
%mem=10GB
%nosave
#b3lyp/svp scf=(tight,noincore,xqc) Test 
#IOP(5/87=12) Density=Current Pop=(MK,readradii) iop(6/33=2) iop(6/42=6)

holoCaM.loop1.water2.frame435 

   0  1 
C         90.98800      107.76684       51.78877
C         90.81273      108.93813       50.87250
O         90.10442      109.86761       51.23468
H         91.44174      108.11377       52.74179
H         90.00099      107.30713       51.99766
H         91.65585      107.00173       51.34075
N         91.46538      108.98521       49.67723
C         91.39780      110.14990       48.81221
C         90.00898      110.29303       48.20727
O         89.58146      109.42950       47.45463
C         92.49956      110.08331       47.74181
C         92.70665      111.40162       47.07246
O         91.89232      112.43462       47.34168
O         93.71170      111.58295       46.40788
H         92.09207      108.20667       49.42184
H         91.64416      111.02684       49.45500
H         92.32663      109.27462       47.00164
H         93.45253      109.87494       48.27794
N         89.23077      111.35037       48.55820
C         87.83771      111.51458       48.16323
C         87.69772      111.81867       46.67519
O         86.86692      111.19240       46.03285
C         87.18411      112.56615       49.09461
C         85.64829      112.47725       49.18355
C         85.14813      113.24448       50.42616
C         83.65964      112.99593       50.70930
N         83.26014      113.62113       51.97258
H         89.61997      112.02185       49.23141
H         87.31412      110.56051       48.39837
H         87.53591      113.59921       48.87952
H         87.53286      112.29195       50.11455
H         85.37476      111.40971       49.33452
H         85.16418      112.83743       48.25066
H         85.34658      114.33245       50.31516
H         85.70729      112.87594       51.31542
H         83.47914      111.89992       50.78811
H         83.04154      113.39553       49.87663
H         82.24982      113.42140       52.15337
H         83.82063      113.22466       52.76318
H         83.40282      114.65580       51.92841
N         88.51587      112.72248       46.04963
C         88.42557      113.04666       44.61837
C         89.61223      112.53942       43.79415
O         89.61361      112.74932       42.58848
C         88.22589      114.56685       44.42926
C         89.38710      115.43297       44.85909
O         89.30026      116.64419       44.73923
O         90.52362      114.90309       45.35287
H         89.24545      113.18304       46.61242
H         87.53197      112.55168       44.17932
H         87.32110      114.87461       44.99587
H         88.03678      114.77061       43.35211
N         90.62887      111.82833       44.35334
C         91.72455      111.25072       43.59152
C         92.62718      112.27126       42.93353
O         92.83086      112.17875       41.73105
H         90.60262      111.62246       45.35827
H         91.31723      110.54998       42.82923
H         92.35769      110.65182       44.27944
N         93.25424      113.23378       43.67059
C         94.28770      114.11588       43.12732
C         95.60324      113.92882       43.88854
O         96.42645      114.83389       43.90636
C         93.80061      115.58381       43.07462
C         93.54486      116.24055       44.40071
O         93.13877      117.39042       44.43548
O         93.77711      115.59434       45.55041
H         93.02717      113.31067       44.67174
H         94.50115      113.85370       42.06779
H         92.86011      115.61282       42.48311
H         94.55980      116.19538       42.54008
N         95.89162      112.73353       44.48414
C         97.13978      112.43205       45.16688
C         97.35105      113.12140       46.50587
O         98.37805      112.83674       47.10615
H         95.22481      111.95485       44.38925
H         97.99218      112.65129       44.48720
H         97.15806      111.34030       45.37959
N         96.47147      114.01938       47.04940
C         96.70287      114.67326       48.33935
C         95.48315      114.45611       49.27699
O         94.48828      115.39909       48.98345
C         97.02943      116.17244       48.09230
C         97.21945      116.99463       49.37589
O         98.17306      116.28497       47.28273
H         95.62591      114.27578       46.52798
H         97.58644      114.21473       48.83356
H         96.18518      116.63020       47.53398
H         98.93779      115.90409       47.79002
H         98.04141      116.57500       49.99275
H         97.46301      118.04428       49.11006
H         96.28794      117.01877       49.97822
N         95.85859      114.57901       50.69151
C         94.78226      114.25621       51.65450
C         94.64407      115.47664       52.55508
O         95.63202      115.92303       53.12165
C         95.08259      112.93609       52.44537
C         95.15577      111.72495       51.46968
C         94.00756      112.67797       53.51907
C         95.54767      110.40487       52.14167
H         96.74432      114.06911       50.91551
H         93.81053      114.09754       51.13075
H         96.05907      113.05547       52.96336
H         95.91732      111.92073       50.68767
H         94.17462      111.58795       50.96099
H         93.03160      112.47172       53.04028
H         94.26675      111.80799       54.15434
H         93.91172      113.54343       54.20482
H         95.62068      109.60674       51.37274
H         96.53383      110.50725       52.64144
H         94.79030      110.07608       52.88166
N         93.43188      116.07788       52.70616
C         93.19467      117.34178       53.40220
C         92.46680      117.10177       54.71724
O         92.31869      115.95858       55.11553
C         92.34726      118.25734       52.46948
C         93.06977      118.53244       51.14454
O         91.09808      117.64929       52.23870
H         92.61613      115.62760       52.27284
H         94.15038      117.85700       53.64488
H         92.18108      119.24140       52.95439
H         90.60384      118.19886       51.57685
H         93.23184      117.59065       50.58206
H         92.45648      119.21609       50.51840
H         94.04820      119.02029       51.33502
N         91.96072      118.14117       55.43838
C         91.14063      117.98092       56.63901
C         89.92838      117.09360       56.36218
O         89.72100      116.13077       57.08627
C         90.65424      119.36346       57.16354
C         91.80566      120.21586       57.70706
O         89.99465      120.06725       56.13973
H         92.12196      119.09598       55.08948
H         91.74007      117.49917       57.44490
H         89.94924      119.17722       58.00808
H         89.41292      120.74462       56.57240
H         92.29964      119.69188       58.55201
H         92.55931      120.43349       56.92312
H         91.40542      121.18177       58.08374
N         89.07790      117.37689       55.33498
C         87.83382      116.64558       55.07039
C         88.03501      115.20938       54.59425
O         87.03884      114.53923       54.35202
C         87.00745      117.40031       54.00488
C         86.59763      118.79736       54.49397
C         85.74898      119.52204       53.44550
C         85.33586      120.93364       53.89410
N         84.50312      120.91533       55.09918
H         89.30923      118.18393       54.73996
H         87.23245      116.61590       56.00601
H         86.07395      116.83232       53.79389
H         87.59225      117.47547       53.06040
H         87.49001      119.41998       54.71050
H         86.01706      118.67040       55.43090
H         84.83850      118.92468       53.22184
H         86.34233      119.61748       52.50924
H         84.75957      121.39961       53.06507
H         86.24102      121.55548       54.07460
H         84.16155      121.88426       55.29044
H         83.67906      120.28629       54.96123
H         85.05681      120.60347       55.92839
N         89.26810      114.66597       54.42358
C         89.50682      113.33805       53.88173
C         90.12449      112.45678       54.95193
O         89.55359      111.42302       55.26919
C         90.43021      113.47286       52.66099
C         89.80831      114.33405       51.55027
C         90.78728      114.54992       50.43493
O         91.12314      115.79663       50.05709
O         91.29808      113.59835       49.87477
H         90.09559      115.22308       54.64734
H         88.55962      112.85627       53.54877
H         90.66689      112.46534       52.25360
H         91.36868      113.95338       52.99206
H         89.50827      115.32880       51.94385
H         88.90359      113.82794       51.16220
N         91.28115      112.81467       55.57322
C         91.88115      112.02699       56.62585
H         92.80027      112.53261       56.99414
H         91.17170      111.92719       57.47463
H         92.15546      111.02284       56.24187
H         91.75032      113.68379       55.30512
Ca        93.00544      114.28156       47.75361
O         93.45864      118.01212       47.94055
H         94.09122      118.70877       48.24655
H         93.93675      117.55222       47.20826
O         90.51838      117.74573       47.91833
H         90.56183      117.15484       47.12556
H         89.91787      118.48439       47.64759

Ca 1.0



