%chk=holoCaM.loop4.water3.frame71.chk
%nprocshared=20
%mem=10GB
%nosave
#b3lyp/svp scf=(tight,noincore,xqc) Test 
#IOP(5/87=12) Density=Current Pop=(MK,readradii) iop(6/33=2) iop(6/42=6)

holoCaM.loop4.water3.frame71 

   -3  1 
C         97.29033        1.77338       29.63963
C         96.86503        2.92579       30.50121
O         95.77801        2.87476       31.05824
H         98.21265        1.32546       30.07142
H         96.50724        0.98375       29.62207
H         97.49639        2.11153       28.60556
N         97.71893        3.96891       30.71783
C         97.48114        4.97860       31.74159
C         97.78727        6.40264       31.27942
O         98.88660        6.63150       30.79227
C         98.44333        4.66754       32.90172
C         98.16414        5.50153       34.10918
O         97.14941        6.17466       34.17228
O         99.00411        5.45663       35.15880
H         98.64311        3.94697       30.25941
H         96.43974        4.90436       32.12829
H         99.48816        4.84629       32.56465
H         98.35718        3.60411       33.20848
N         96.90635        7.42794       31.50782
C         97.24033        8.83776       31.27891
C         97.03197        9.73583       32.52669
O         97.44934       10.88312       32.46251
C         96.49338        9.34634       30.00305
C         96.96595       10.72603       29.47319
C         94.96898        9.37965       30.19819
C         98.45676       10.77667       29.12812
H         95.98177        7.19612       31.87888
H         98.32286        8.88749       31.05570
H         96.70845        8.61284       29.19306
H         96.72664       11.53773       30.19026
H         96.40968       10.94061       28.53357
H         94.68556       10.10579       30.98949
H         94.46741        9.67408       29.25111
H         94.58474        8.37984       30.46826
H         98.69648       11.75899       28.67015
H         99.08692       10.67312       30.03405
H         98.71454        9.97528       28.40310
N         96.39704        9.31913       33.67417
C         96.15322       10.19508       34.83669
C         96.69315        9.65035       36.17694
O         96.49390       10.30663       37.19001
C         94.64801       10.53974       34.92882
C         93.71885        9.38684       35.18264
O         94.17694        8.13098       35.32406
O         92.52067        9.60013       35.26639
H         96.00974        8.37112       33.71129
H         96.65615       11.17522       34.68521
H         94.34188       11.02460       33.97593
H         94.49828       11.28194       35.74390
N         97.43034        8.50540       36.25737
C         98.07518        8.00457       37.47277
C         97.17926        7.43937       38.57463
O         97.72988        7.03264       39.58810
H         97.65822        8.02391       35.38815
H         98.69931        8.81951       37.89840
H         98.76136        7.18060       37.18368
N         95.82214        7.38567       38.48334
C         94.95546        6.93943       39.58657
C         95.08055        5.47145       40.02383
O         94.71846        5.18659       41.15749
C         93.47945        7.23339       39.26591
C         92.97537        6.58561       37.99148
O         93.79357        5.87265       37.17791
O         91.81215        6.76081       37.68093
H         95.38647        7.76002       37.63111
H         95.22221        7.55461       40.47806
H         93.35219        8.33693       39.17165
H         92.85081        6.90136       40.11888
N         95.49348        4.48394       39.18382
C         95.63242        3.08056       39.56495
C         94.73771        2.11536       38.78833
O         94.96848        0.92115       38.91294
H         95.74490        4.74212       38.23270
H         95.43683        2.91747       40.64833
H         96.69190        2.79792       39.38484
N         93.66379        2.52439       38.04379
C         92.74558        1.59599       37.36774
C         92.42504        2.03324       35.95170
O         91.98352        3.15816       35.76691
C         91.39231        1.54102       38.09290
C         91.46242        0.81864       39.43808
C         90.07984        0.70457       40.02422
N         89.38141        1.81200       40.36599
O         89.58006       -0.39954       40.18183
H         93.42972        3.52534       38.02886
H         93.15196        0.55973       37.34790
H         90.68572        0.95468       37.45933
H         90.98446        2.56987       38.20540
H         92.13194        1.35198       40.14397
H         91.86882       -0.20384       39.26565
H         89.78888        2.75061       40.24556
H         88.43061        1.73109       40.75466
N         92.49119        1.14274       34.91760
C         92.03680        1.47974       33.56796
C         90.54640        1.79898       33.61504
O         89.79963        0.97795       34.13090
C         92.24218        0.32985       32.52769
C         92.02582        0.89202       31.10466
C         93.63057       -0.32688       32.57556
H         92.82559        0.19172       35.11964
H         92.63281        2.34251       33.21385
H         91.50144       -0.47937       32.71714
H         91.02098        1.34450       30.99141
H         92.78474        1.67617       30.88127
H         92.12086        0.09011       30.34332
H         94.43582        0.42026       32.42743
H         93.79471       -0.86454       33.52971
H         93.70121       -1.09970       31.77925
N         90.03598        2.92881       33.04608
C         88.60150        3.21314       33.00902
C         88.04341        3.02964       31.60828
O         88.78817        2.74714       30.68000
C         88.25034        4.60312       33.60798
C         88.73244        5.82128       32.85267
N         90.04017        6.14549       32.80275
O         87.91508        6.56583       32.33142
H         90.68307        3.55325       32.55785
H         88.06163        2.47115       33.63453
H         88.61552        4.66738       34.65410
H         87.14325        4.67402       33.65892
H         90.75309        5.55905       33.25053
H         90.34309        7.01550       32.33973
N         86.70087        3.14265       31.40590
C         86.04787        2.96301       30.11783
C         86.65235        3.86498       29.05609
O         87.02850        3.36977       28.00276
C         84.49575        3.11524       30.21335
C         83.89531        4.48997       30.50329
C         83.09725        5.11154       29.52039
C         84.05746        5.14858       31.74072
C         82.49675        6.35283       29.76017
C         83.45831        6.39056       31.97562
C         82.67922        6.99822       30.98950
O         82.11152        8.19659       31.23538
H         86.11704        3.32703       32.22495
H         86.21616        1.90906       29.79911
H         84.10771        2.40108       30.97202
H         84.10125        2.76870       29.23261
H         82.93142        4.63524       28.56253
H         84.62228        4.72184       32.54775
H         81.88937        6.81139       28.98990
H         83.59574        6.87922       32.93250
H         81.56856        8.65499       30.57830
N         86.78473        5.20051       29.27157
C         87.29881        6.12201       28.25819
C         88.79044        5.92557       27.97287
O         89.25783        6.40241       26.94786
C         87.05433        7.58514       28.69110
C         85.56194        7.86109       28.95190
C         85.33067        9.26033       29.43133
O         85.90163        9.68330       30.57586
O         84.59366       10.00851       28.81056
H         86.47537        5.56560       30.18275
H         86.72467        5.94394       27.32127
H         87.41053        8.27368       27.89311
H         87.63669        7.78844       29.61787
H         85.17719        7.19785       29.74465
H         84.98005        7.66637       28.02482
N         89.61415        5.32366       28.87955
C         91.07260        5.23338       28.73321
C         91.50508        4.12679       27.78006
O         92.70158        3.96710       27.58409
C         91.67279        5.07040       30.14752
C         93.17208        5.33062       30.34341
C         93.43569        5.59556       31.81717
O         93.29935        4.64671       32.76160
O         93.69560        6.72786       32.18068
H         89.19944        5.03719       29.77657
H         91.44314        6.21222       28.35301
H         91.38493        4.09639       30.58480
H         91.19142        5.88764       30.69985
H         93.42597        6.25701       29.78153
H         93.80606        4.50670       29.95419
N         90.59602        3.33114       27.14085
C         90.96086        2.26782       26.22684
H         92.05955        2.14779       26.12712
H         90.53484        1.31049       26.59391
H         90.53707        2.48519       25.22355
H         89.58874        3.47049       27.28907
Ca        93.55530        5.32093       34.94778
O         96.48120        4.09548       36.07157
H         97.03474        3.42050       36.53743
H         96.82793        4.96456       36.39551
O         95.32128        2.30422       34.28147
H         96.30468        2.24229       34.19194
H         95.05069        2.92050       33.55778
O         91.37371        7.03643       35.10201
H         90.60166        7.64857       35.17082
H         91.03221        6.16589       35.43154

Ca 1.0



