%chk=holoCaM-CaMKII.loop4.water1.frame392.chk
%nprocshared=20
%mem=10GB
%nosave
#b3lyp/svp scf=(tight,noincore,xqc) Test 
#IOP(5/87=12) Density=Current Pop=(MK,readradii) iop(6/33=2) iop(6/42=6)

holoCaM-CaMKII.loop4.water1.frame392 

   -3  1 
C         69.63376       81.67310       94.69628
C         71.01992       82.13954       95.03976
O         71.75961       82.52952       94.14802
H         69.07874       82.50361       94.20942
H         69.68072       80.80503       94.01013
H         69.06790       81.37773       95.60678
N         71.41626       82.17997       96.33806
C         72.67164       82.77423       96.77027
C         73.89516       81.91975       96.42990
O         73.98215       80.78841       96.88598
C         72.57160       83.06379       98.27907
C         73.72020       83.87101       98.76946
O         73.67032       84.38583       99.86594
O         74.83031       83.97144       98.02998
H         70.73794       81.88403       97.05853
H         72.76010       83.77111       96.28145
H         72.47490       82.13279       98.88186
H         71.65867       83.67792       98.43675
N         74.90220       82.43311       95.65592
C         76.13265       81.70522       95.33812
C         77.06163       81.61789       96.55648
O         77.37026       80.50720       96.96546
C         76.87316       82.33545       94.10582
C         75.93829       82.31574       92.86062
C         78.19023       81.58385       93.81176
C         76.56663       82.85487       91.57172
H         74.77979       83.38048       95.26743
H         75.85549       80.67397       95.01978
H         77.14455       83.38579       94.33270
H         75.04218       82.93323       93.06959
H         75.59670       81.27730       92.66139
H         78.74922       82.06785       92.98505
H         78.87256       81.61473       94.68614
H         77.98921       80.52487       93.54653
H         75.79970       82.86934       90.76841
H         76.95313       83.88177       91.71400
H         77.39221       82.20177       91.22358
N         77.59941       82.73845       97.13839
C         78.69394       82.69083       98.12071
C         78.28361       82.66318       99.59775
O         79.16319       82.70405      100.44684
C         79.85319       83.66088       97.74755
C         79.76420       85.16893       97.91875
O         80.74654       85.82611       97.61373
O         78.72367       85.82092       98.47158
H         77.33939       83.65084       96.74336
H         79.19549       81.70385       98.00313
H         80.11493       83.45746       96.68660
H         80.73009       83.36125       98.36359
N         76.99479       82.44049       99.97919
C         76.58281       82.18308      101.35510
C         76.71998       83.36471      102.28908
O         77.29676       83.21976      103.35772
H         76.27064       82.34304       99.25631
H         77.13091       81.30155      101.75727
H         75.50275       81.91911      101.34411
N         76.14757       84.55340      101.96368
C         76.04631       85.70726      102.85379
C         74.58245       86.15455      103.01594
O         74.34456       87.20701      103.59107
C         76.96518       86.84323      102.35231
C         76.64220       87.42236      101.00248
O         77.34411       88.31249      100.55211
O         75.59636       86.98807      100.28232
H         75.73994       84.63504      101.02725
H         76.42823       85.45559      103.86880
H         78.00497       86.44976      102.31902
H         76.94126       87.67073      103.09428
N         73.54859       85.37053      102.58368
C         72.13471       85.68887      102.73506
C         71.57126       86.75226      101.79963
O         70.36825       86.96102      101.87592
H         73.75673       84.43297      102.21924
H         71.92286       85.94966      103.79357
H         71.55973       84.76464      102.50174
N         72.32295       87.44602      100.89204
C         71.75323       88.42498       99.95429
C         72.03485       88.03338       98.50870
O         72.87270       87.16981       98.28065
C         72.22158       89.85816      100.31387
C         73.74692       90.09471      100.29692
C         74.32576       90.16843       98.91028
N         73.98333       91.18279       98.08351
O         75.13749       89.33376       98.54127
H         73.32974       87.27076      100.85818
H         70.64612       88.42615      100.05703
H         71.88078       90.03976      101.35660
H         71.71258       90.60864       99.67079
H         74.25313       89.31434      100.89951
H         73.96809       91.06730      100.78676
H         73.32910       91.91759       98.39004
H         74.39685       91.25139       97.14510
N         71.29603       88.56192       97.48203
C         71.45460       88.13902       96.08864
C         71.57853       89.35238       95.17378
O         70.61297       90.08978       95.02437
C         70.24888       87.24862       95.65215
C         70.40321       86.74162       94.20703
C         70.08911       86.03225       96.57729
H         70.53726       89.22428       97.70782
H         72.37093       87.51702       95.98783
H         69.31226       87.84666       95.71302
H         71.32090       86.12591       94.10270
H         69.52948       86.11951       93.91806
H         70.44783       87.58512       93.49462
H         71.00258       85.40329       96.55289
H         69.89862       86.35142       97.62240
H         69.22353       85.41469       96.25400
N         72.74028       89.60602       94.50915
C         72.88864       90.67644       93.52096
C         72.17803       90.31185       92.22246
O         71.66555       89.21046       92.10144
C         74.38893       90.88340       93.20648
C         75.14218       91.38355       94.41103
N         76.13011       90.64700       94.96957
O         74.85867       92.47418       94.88420
H         73.55429       89.01139       94.71394
H         72.47322       91.62518       93.92683
H         74.52944       91.63404       92.40044
H         74.81566       89.91970       92.84980
H         76.38154       89.72415       94.58794
H         76.64019       90.99813       95.79401
N         72.15053       91.19168       91.17903
C         71.67159       90.82129       89.84911
C         72.61552       89.79184       89.24403
O         72.14769       88.84973       88.62150
C         71.61233       92.04629       88.91542
C         71.04395       91.66608       87.56227
C         69.69695       91.27721       87.43041
C         71.86394       91.68049       86.42273
C         69.18429       90.91221       86.18036
C         71.35210       91.30530       85.17696
C         70.00949       90.92117       85.05114
O         69.50448       90.55797       83.85455
H         72.52795       92.14024       91.32154
H         70.63743       90.41649       89.92784
H         72.64005       92.45661       88.80860
H         70.97441       92.84258       89.35693
H         69.04122       91.25993       88.29225
H         72.90494       91.96586       86.50102
H         68.14537       90.61853       86.08916
H         72.00151       91.31081       84.31100
H         70.04381       90.54541       83.05072
N         73.97056       89.92786       89.37098
C         74.92487       88.95545       88.84123
C         74.81981       87.57046       89.49547
O         75.46370       86.65901       89.00105
C         76.37832       89.48050       88.94474
C         76.87740       89.64814       90.39218
C         78.29174       90.14870       90.42316
O         78.57909       91.32122       91.02020
O         79.18981       89.49026       89.92281
H         74.32637       90.76980       89.84736
H         74.70098       88.84107       87.75628
H         76.44207       90.45897       88.41865
H         77.05011       88.76906       88.41523
H         76.84090       88.67555       90.92429
H         76.23727       90.37103       90.93418
N         74.02877       87.33653       90.58940
C         73.84050       86.01416       91.18895
C         72.41998       85.50031       90.95891
O         72.16377       84.34803       91.28739
C         74.11759       86.05869       92.70824
C         75.53860       86.50804       93.06637
C         75.75231       86.47846       94.55616
O         76.72490       85.71569       95.08543
O         75.05651       87.15309       95.29601
H         73.51594       88.11439       91.00874
H         74.52248       85.27835       90.71045
H         73.94889       85.04508       93.13293
H         73.39654       86.75956       93.18211
H         75.71062       87.54027       92.70115
H         76.27490       85.83722       92.58341
N         71.44887       86.27731       90.40164
C         70.10324       85.83355       90.11292
H         69.38268       86.46332       90.67570
H         69.90808       85.96134       89.02605
H         69.94101       84.76983       90.37857
H         71.64648       87.24931       90.16723
Ca        76.62272       85.14654       98.53957
O         77.72842       88.37649       96.71883
H         78.48589       88.31936       97.35317
H         78.15484       88.38516       95.82517

Ca 1.0



