%chk=holoCaM.loop1.water2.frame46.chk
%nprocshared=20
%mem=10GB
%nosave
#b3lyp/svp scf=(tight,noincore,xqc) Test 
#IOP(5/87=12) Density=Current Pop=(MK,readradii) iop(6/33=2) iop(6/42=6)

holoCaM.loop1.water2.frame46 

   0  1 
C         80.66923       87.01889       26.54455
C         80.30322       88.32329       27.17440
O         80.99445       88.75539       28.08714
H         81.57912       86.59959       27.02569
H         79.83211       86.30164       26.66095
H         80.87913       87.17887       25.46606
N         79.23643       89.03437       26.71206
C         78.91240       90.34094       27.25507
C         78.43237       90.20872       28.70394
O         77.36699       89.65794       28.94440
C         77.86100       91.05574       26.38638
C         77.72371       92.49202       26.78041
O         76.84848       93.17480       26.28576
O         78.58595       93.04348       27.65229
H         78.69611       88.66322       25.91485
H         79.84911       90.94206       27.19382
H         76.88349       90.53579       26.49020
H         78.15595       91.03627       25.31429
N         79.22411       90.64572       29.71914
C         78.93229       90.46679       31.14285
C         77.73400       91.28400       31.65139
O         77.16553       90.87153       32.65238
C         80.23133       90.75555       31.94093
C         80.20952       90.57139       33.46418
C         79.86487       89.16529       33.97387
C         80.80193       88.06863       33.44330
N         80.52710       86.79347       34.10575
H         80.14459       91.01467       29.44968
H         78.69108       89.39055       31.28730
H         80.53305       91.80469       31.76929
H         81.03798       90.11175       31.52498
H         79.50123       91.29913       33.91214
H         81.22703       90.83069       33.83504
H         78.81533       88.91103       33.71809
H         79.95192       89.20050       35.08202
H         81.86205       88.34953       33.63073
H         80.65680       87.95060       32.34697
H         79.52737       86.51915       33.96803
H         81.14369       86.05308       33.70012
H         80.73080       86.87543       35.12893
N         77.30829       92.44840       31.06595
C         76.14265       93.21302       31.54662
C         75.07615       93.42328       30.46300
O         74.06520       94.04293       30.76611
C         76.57736       94.52691       32.24852
C         77.43599       95.41098       31.40530
O         76.97890       95.89977       30.24534
O         78.59749       95.60558       31.72317
H         77.83693       92.82162       30.26567
H         75.61640       92.64764       32.34635
H         77.16185       94.24260       33.15174
H         75.68665       95.09416       32.59599
N         75.16958       92.85644       29.22243
C         74.06774       92.84722       28.26578
C         73.75152       94.15750       27.56807
O         72.80160       94.15665       26.79699
H         75.98914       92.28187       28.98774
H         73.15443       92.47804       28.78314
H         74.30439       92.11820       27.46076
N         74.47619       95.30086       27.74179
C         74.13669       96.54694       27.04389
C         74.29361       96.47179       25.51619
O         73.90020       97.42414       24.85597
C         74.93311       97.74286       27.62393
C         76.42586       97.67171       27.45032
O         77.19808       98.65522       27.94725
O         76.94956       96.73900       26.87073
H         75.25813       95.29614       28.40908
H         73.06523       96.76003       27.25807
H         74.71877       97.81062       28.71210
H         74.58000       98.68288       27.14780
N         74.85610       95.39703       24.88549
C         74.98148       95.26270       23.43990
C         76.42294       95.21655       22.95381
O         76.61339       95.02743       21.76251
H         75.20606       94.61544       25.44424
H         74.48214       96.10145       22.90821
H         74.46815       94.32436       23.13845
N         77.47990       95.45412       23.78677
C         78.86752       95.56456       23.32651
C         79.83864       94.78181       24.20606
O         79.46901       94.32049       25.27164
C         79.27533       97.06796       23.30346
C         78.68708       97.77074       22.08073
O         78.83324       97.74807       24.45207
H         77.28940       95.66812       24.76933
H         78.97638       95.14014       22.30528
H         80.37838       97.17682       23.21638
H         79.01663       97.17134       25.23406
H         79.08801       97.30449       21.15513
H         77.57940       97.71069       22.07150
H         78.98568       98.84093       22.08495
N         81.12636       94.59552       23.77725
C         82.16197       93.89262       24.53315
C         83.35615       94.82705       24.72941
O         84.00641       95.20306       23.76523
C         82.54922       92.56508       23.79981
C         81.37753       91.55131       23.93759
C         83.85527       91.95520       24.34628
C         81.59558       90.21997       23.21394
H         81.38632       94.95944       22.84859
H         81.78467       93.61176       25.54126
H         82.73034       92.79390       22.72613
H         80.45031       92.00406       23.52800
H         81.20546       91.33018       25.01522
H         84.15225       91.05567       23.77193
H         84.70239       92.66006       24.23254
H         83.74298       91.68322       25.40937
H         80.69961       89.57807       23.35146
H         81.75244       90.39150       22.12903
H         82.45756       89.66114       23.63194
N         83.68615       95.23363       25.98818
C         84.83184       96.06926       26.33760
C         86.13066       95.27200       26.24456
O         86.10332       94.09550       25.91432
C         84.66665       96.61738       27.79120
C         83.42813       97.52380       27.92036
O         84.64870       95.55365       28.71568
H         83.07359       94.93868       26.74676
H         84.87367       96.94703       25.65586
H         85.52537       97.26609       28.05640
H         83.79341       95.54752       29.21715
H         83.50470       98.38407       27.22362
H         82.50267       96.95715       27.69920
H         83.35724       97.91695       28.95756
N         87.31292       95.85811       26.58416
C         88.59236       95.15191       26.65527
C         88.52020       93.99868       27.64699
O         88.91796       92.89383       27.30834
C         89.73249       96.11657       27.07759
C         89.98059       97.20753       26.03213
O         89.43598       96.71805       28.31460
H         87.29341       96.85343       26.84598
H         88.85560       94.74281       25.65378
H         90.66809       95.51080       27.15404
H         90.27901       96.76112       28.83648
H         90.82627       97.84866       26.35836
H         90.24176       96.74752       25.05596
H         89.08939       97.85417       25.89685
N         88.01822       94.19936       28.89609
C         87.90931       93.16206       29.92039
C         87.00582       92.03530       29.44753
O         87.42393       90.88575       29.46797
C         87.34309       93.77259       31.22544
C         88.29847       94.82106       31.82989
C         87.65520       95.54056       33.02338
C         88.54365       96.66065       33.59500
N         89.77516       96.14821       34.19758
H         87.67248       95.14392       29.11761
H         88.91713       92.74769       30.15039
H         87.18326       92.97145       31.98146
H         86.35892       94.24236       31.00576
H         88.55101       95.59569       31.07791
H         89.23685       94.31028       32.13237
H         87.39826       94.81428       33.82424
H         86.71373       96.01644       32.66966
H         87.96255       97.19821       34.37639
H         88.79217       97.39348       32.79441
H         90.38711       95.70428       33.47731
H         90.30011       96.94634       34.62282
H         89.54586       95.45828       34.94924
N         85.74581       92.30489       29.00215
C         84.79316       91.28062       28.57074
C         85.29296       90.50218       27.35166
O         84.70735       89.47321       27.04452
C         83.40976       91.92533       28.26337
C         82.79425       92.62511       29.49909
C         81.55453       93.43094       29.18457
O         81.57829       94.30152       28.33758
O         80.43607       93.28454       29.90850
H         85.46013       93.28926       28.98403
H         84.67166       90.55752       29.40779
H         82.69574       91.15728       27.89170
H         83.56319       92.67718       27.46095
H         83.51776       93.33983       29.92672
H         82.57596       91.86934       30.28238
N         86.35350       90.93144       26.60568
C         86.89920       90.21274       25.47178
H         87.97774       90.01488       25.65321
H         86.39090       89.24260       25.29687
H         86.80680       90.83689       24.55819
H         86.80229       91.82327       26.83007
Ca        78.16272       95.00669       28.59756
O         80.12525       97.95678       27.31359
H         80.61704       98.41202       28.03852
H         79.86334       98.69638       26.71156
O         80.56870       97.09700       30.25157
H         81.06528       97.93335       30.43591
H         80.99597       96.42084       30.83407

Ca 1.0



