%chk=holoCaM-CaMKII.loop3.water2.frame229.chk
%nprocshared=20
%mem=10GB
%nosave
#b3lyp/svp scf=(tight,noincore,xqc) Test 
#IOP(5/87=12) Density=Current Pop=(MK,readradii) iop(6/33=2) iop(6/42=6)

holoCaM-CaMKII.loop3.water2.frame229 

   0  1 
C         71.08993       34.66304       39.15813
C         72.27134       33.87658       38.67825
O         72.13039       32.69135       38.43186
H         70.19394       34.01314       39.25120
H         71.31747       35.10636       40.15011
H         70.87013       35.47598       38.43452
N         73.46733       34.50272       38.50028
C         74.69476       33.86770       38.01958
C         75.24603       32.87571       39.05350
O         76.13294       33.22885       39.81907
C         75.71774       34.98734       37.70690
C         76.96813       34.52273       37.02306
O         77.84089       35.33671       36.77824
O         77.13114       33.24120       36.64687
H         73.48732       35.51834       38.68652
H         74.49025       33.35518       37.05475
H         75.98953       35.51102       38.64910
H         75.24566       35.72705       37.02345
N         74.74048       31.61306       39.14504
C         75.14449       30.63737       40.15809
C         76.55232       30.08481       39.91988
O         77.02707       29.33426       40.75996
C         74.03787       29.54806       40.22409
C         73.99018       28.64170       41.47306
C         74.41160       27.18513       41.22543
C         74.07292       26.32619       42.46125
N         74.30672       24.90445       42.21292
H         73.99114       31.34498       38.49948
H         75.12417       31.15970       41.14089
H         73.94145       28.96674       39.28156
H         73.10171       30.14757       40.29967
H         72.91394       28.57024       41.75126
H         74.50830       29.10745       42.33912
H         75.49042       27.11128       40.97646
H         73.81952       26.79408       40.36775
H         72.99701       26.45737       42.72084
H         74.67960       26.66233       43.33057
H         74.04696       24.36332       43.07006
H         73.70555       24.57636       41.42166
H         75.31331       24.73429       41.99152
N         77.27810       30.41351       38.80402
C         78.62818       29.92364       38.52046
C         79.64917       31.05893       38.33552
O         80.81288       30.75843       38.10625
C         78.59733       28.99289       37.28304
C         78.22135       29.68867       35.99790
O         77.00657       30.26416       35.85577
O         79.02554       29.72193       35.08467
H         76.84955       31.02303       38.10021
H         78.98991       29.30383       39.37015
H         77.88458       28.16092       37.46624
H         79.60953       28.54457       37.16435
N         79.30345       32.37677       38.44269
C         80.24106       33.48817       38.33244
C         80.86726       33.72365       36.96247
O         81.66302       34.64912       36.87701
H         78.34079       32.62338       38.69424
H         81.05384       33.34105       39.07678
H         79.70888       34.42523       38.60639
N         80.61460       32.95205       35.86133
C         81.36489       33.13268       34.61065
C         81.01427       34.40906       33.84620
O         81.70708       34.71114       32.88439
C         81.24062       31.88614       33.70320
C         79.91278       31.75894       32.99580
N         79.85729       31.50634       31.66737
O         78.87729       31.87010       33.62472
H         79.96693       32.15851       35.94718
H         82.43856       33.17853       34.90095
H         81.41010       30.98868       34.33661
H         82.04715       31.90094       32.93879
H         80.71662       31.39278       31.11125
H         78.94686       31.40365       31.19423
N         79.94033       35.18132       34.18501
C         79.55926       36.39889       33.48223
C         78.21085       36.28650       32.79774
O         77.80212       37.26375       32.18644
H         79.34594       34.89208       34.96800
H         80.30148       36.65925       32.69639
H         79.53203       37.23624       34.21111
N         77.48974       35.12552       32.79736
C         76.27041       34.93881       32.02369
C         75.07669       34.54441       32.93196
O         75.38336       33.91570       34.14997
C         76.52715       33.92986       30.88000
C         77.58061       34.43306       29.91461
C         77.20750       34.95822       28.66371
C         78.94326       34.38637       30.25153
C         78.17891       35.43521       27.77733
C         79.91336       34.84878       29.35999
C         79.53388       35.37733       28.11888
O         80.45937       35.83309       27.25084
H         77.84751       34.29987       33.29578
H         75.95939       35.87947       31.51661
H         75.57977       33.81364       30.31129
H         76.80987       32.92864       31.26427
H         76.16409       35.01685       28.37909
H         79.25842       33.98625       31.20238
H         77.87780       35.84895       26.82289
H         80.95871       34.79491       29.63638
H         81.40665       35.80576       27.44813
N         73.95889       33.94316       32.18837
C         72.84081       33.34117       32.93865
C         72.17491       32.37361       31.97093
O         71.75580       32.81077       30.90575
C         71.78242       34.38590       33.44181
C         72.40972       35.51358       34.30213
C         70.67679       33.64944       34.23572
C         71.40856       36.59440       34.72574
H         73.60076       34.62706       31.48018
H         73.23270       32.77492       33.81252
H         71.31761       34.86825       32.55272
H         73.17357       36.04289       33.69971
H         72.89538       35.08694       35.20677
H         69.85843       34.33391       34.53238
H         70.19961       32.85766       33.62320
H         71.10192       33.17884       35.14911
H         70.91920       37.03707       33.83128
H         70.63381       36.19609       35.41040
H         71.94384       37.40181       35.26808
N         72.02465       31.05341       32.27277
C         71.40030       30.09488       31.36298
C         70.03934       29.67526       31.87860
O         69.62537       30.14746       32.92599
C         72.33038       28.88849       31.15494
O         72.53712       28.21299       32.36900
H         72.33264       30.72047       33.19844
H         71.22361       30.55788       30.36741
H         73.28894       29.24880       30.71764
H         71.90239       28.17527       30.42086
H         73.51703       28.13940       32.50336
N         69.26066       28.81955       31.16404
C         67.91729       28.41642       31.56902
C         67.92344       27.69154       32.90254
O         67.18566       28.08598       33.79282
C         67.29226       27.51657       30.49916
H         69.63175       28.45847       30.27012
H         67.27322       29.32193       31.64795
H         67.88832       26.58974       30.35981
H         66.25637       27.24100       30.79107
H         67.24761       28.06110       29.53151
N         68.75115       26.62745       33.10826
C         68.80743       25.87158       34.35906
C         69.03945       26.78175       35.54849
O         68.29791       26.69173       36.51791
C         69.92212       24.82107       34.28600
H         69.38778       26.35870       32.34248
H         67.84620       25.33072       34.50686
H         69.73432       24.12652       33.43959
H         70.91183       25.30461       34.13781
H         69.95044       24.22669       35.22450
N         70.02243       27.72109       35.51546
C         70.28073       28.66546       36.60083
C         69.01784       29.43679       36.95440
O         68.59057       29.37507       38.09895
C         71.41136       29.63513       36.19513
C         72.75992       28.90823       36.05505
C         73.80949       29.82466       35.50451
O         74.40505       29.52754       34.48254
O         74.09617       30.98126       36.12242
H         70.58336       27.78624       34.65199
H         70.60508       28.10843       37.50911
H         71.52633       30.42634       36.96808
H         71.13741       30.12678       35.23665
H         72.67723       28.03361       35.37692
H         73.07526       28.53770       37.05294
N         68.34946       30.15932       36.01739
C         67.12290       30.86711       36.30863
H         66.34961       30.15301       36.66437
H         67.30399       31.64075       37.08346
H         66.74649       31.36243       35.38773
H         68.70759       30.19332       35.05996
Ca        76.26643       31.79957       34.31398
O         75.19371       30.92976       31.43718
H         75.41895       29.97851       31.58512
H         75.31588       31.06187       30.46366
O         77.22466       28.85025       33.00100
H         78.06719       28.64014       32.52581
H         76.93606       27.98986       33.39646

Ca 1.0



