%chk=holoCaM.loop2.water2.frame456.chk
%nprocshared=20
%mem=10GB
%nosave
#b3lyp/svp scf=(tight,noincore,xqc) Test 
#IOP(5/87=12) Density=Current Pop=(MK,readradii) iop(6/33=2) iop(6/42=6)

holoCaM.loop2.water2.frame456 

   -2  1 
C         17.24125       92.40085       51.29835
C         18.04893       93.30920       50.42156
O         19.25060       93.10967       50.31143
H         16.16292       92.66484       51.26859
H         17.35169       91.35664       50.93558
H         17.60036       92.46707       52.34490
N         17.44545       94.31733       49.73385
C         18.16087       95.14553       48.77723
C         19.25896       95.96054       49.45394
O         18.97054       96.77031       50.32362
C         17.17253       96.04805       48.01481
C         17.77315       96.71793       46.81080
O         17.07137       97.43227       46.12371
O         19.05742       96.53139       46.45844
H         16.42806       94.45035       49.84420
H         18.59237       94.45360       48.02943
H         16.74800       96.81082       48.70385
H         16.33909       95.41926       47.63247
N         20.55366       95.78621       49.07267
C         21.69556       96.51631       49.61108
C         21.56551       98.01092       49.38712
O         21.81660       98.77773       50.30574
C         22.98062       96.03077       48.91633
H         20.74142       95.09049       48.34141
H         21.80702       96.30401       50.69732
H         23.11503       94.93965       49.07761
H         22.93596       96.21860       47.82053
H         23.86961       96.55412       49.32895
N         21.20647       98.48476       48.16357
C         21.21001       99.89342       47.78299
C         19.81199      100.44600       47.48768
O         19.72086      101.60645       47.11052
C         22.19170      100.05794       46.60155
C         21.88190       99.14788       45.44673
O         22.75414       98.18193       45.09962
O         20.83481       99.25872       44.83851
H         20.95378       97.79732       47.44115
H         21.60287      100.52528       48.61006
H         23.20730       99.79478       46.97004
H         22.21977      101.11207       46.25330
N         18.67688       99.72315       47.72307
C         17.33098      100.28048       47.62043
C         16.84241      100.63217       46.22230
O         15.74659      101.16937       46.13782
H         18.76007       98.77514       48.10968
H         17.28818      101.19708       48.25081
H         16.60577       99.55494       48.04747
N         17.56812      100.40146       45.08877
C         17.13138      100.89035       43.77600
C         15.88728      100.19585       43.20753
O         15.37687      100.66579       42.20046
C         18.29228      100.84964       42.75732
C         18.63851       99.46630       42.25883
N         18.61357       99.19502       40.93333
O         18.95838       98.59035       43.04558
H         18.49248       99.96521       45.17856
H         16.89410      101.96867       43.91708
H         19.19283      101.30806       43.22159
H         18.01649      101.48242       41.88671
H         18.35152       99.91709       40.24670
H         18.87747       98.26354       40.58710
N         15.36859       99.06485       43.76601
C         14.19502       98.35879       43.26888
C         14.52316       96.94680       42.81164
O         13.61004       96.13937       42.71587
H         15.82386       98.66197       44.58762
H         13.69060       98.89099       42.43380
H         13.46968       98.30205       44.10896
N         15.78871       96.60164       42.43501
C         16.18238       95.27581       41.95334
C         17.41314       94.77611       42.77338
O         18.38518       95.79493       42.69139
C         16.50465       95.34475       40.42906
C         15.28680       95.75043       39.59674
O         17.54499       96.25347       40.19213
H         16.51059       97.33518       42.43728
H         15.35502       94.54166       42.08053
H         16.80965       94.32939       40.08630
H         17.96564       96.00135       39.32918
H         14.93800       96.76665       39.87463
H         15.56264       95.75707       38.51995
H         14.46147       95.02232       39.74153
N         17.92666       93.50493       42.21424
C         18.84859       92.74473       43.08321
C         19.99734       92.19860       42.23714
O         19.77836       91.38819       41.34870
C         18.17355       91.62341       43.95428
C         17.38511       90.55369       43.14403
C         17.29630       92.24624       45.05533
C         16.96196       89.34797       43.98517
H         17.16090       92.89136       41.86038
H         19.30417       93.43018       43.81210
H         19.00734       91.10165       44.47346
H         18.02072       90.14449       42.33744
H         16.47505       90.99193       42.68527
H         17.88302       92.97138       45.65336
H         16.41982       92.76745       44.62084
H         16.94521       91.47641       45.77156
H         16.46231       88.59886       43.33490
H         17.85501       88.88040       44.44023
H         16.25071       89.62484       44.78708
N         21.27060       92.63496       42.46450
C         22.45735       92.15990       41.75057
C         22.73997       90.70211       42.15443
O         21.97544       90.16287       42.93494
C         23.64034       93.10621       42.10333
C         24.80920       93.11408       41.14939
O         25.87018       93.89505       41.42634
O         24.77850       92.50977       40.08980
H         21.40440       93.35640       43.17875
H         22.25757       92.25361       40.66043
H         23.97861       92.89236       43.14038
H         23.27602       94.15746       42.07875
N         23.79963       89.98904       41.67186
C         24.03616       88.58841       42.02198
C         24.27351       88.37253       43.52327
O         23.52235       87.58040       44.07823
C         25.15436       87.98515       41.13745
C         25.42732       86.53105       41.44662
C         24.41292       85.56461       41.32156
C         26.71053       86.12710       41.85618
C         24.67893       84.22177       41.60497
C         26.97244       84.78252       42.13445
C         25.95760       83.83073       42.00964
H         24.43570       90.42350       40.99968
H         23.11660       88.02412       41.74861
H         26.08646       88.56560       41.22375
H         24.84457       88.06618       40.07318
H         23.41726       85.84613       41.00466
H         27.51000       86.85062       41.95829
H         23.89346       83.48355       41.50827
H         27.96339       84.47850       42.44588
H         26.16241       82.79015       42.22503
N         25.25195       88.98567       44.27005
C         25.44809       88.75807       45.70262
C         24.17389       88.89137       46.50770
O         23.88336       88.02768       47.32171
C         26.43446       89.85361       46.11998
C         27.26915       89.99363       44.87519
C         26.20387       89.96548       43.78092
H         25.90092       87.75080       45.84889
H         25.90510       90.82554       46.24847
H         26.99237       89.63078       47.05523
H         27.94158       90.87626       44.84875
H         27.88814       89.06968       44.78734
H         25.68346       90.94162       43.66833
H         26.71864       89.68738       42.85120
N         23.33982       89.94229       46.27487
C         22.06227       90.13096       46.95049
C         21.20423       88.88336       46.80699
O         20.80002       88.33039       47.82057
C         21.34071       91.35844       46.36808
C         22.07535       92.68224       46.66670
C         21.31984       93.80549       46.03594
O         20.13143       93.93158       46.26276
O         21.90005       94.63382       45.15489
H         23.61180       90.60969       45.53769
H         22.23229       90.31213       48.03538
H         20.32453       91.41919       46.81871
H         21.22757       91.23368       45.26919
H         23.11120       92.68127       46.26645
H         22.11818       92.83843       47.76496
N         20.94314       88.35047       45.58195
C         20.23151       87.10495       45.37865
H         19.36625       87.26790       44.71001
H         20.91181       86.37701       44.88842
H         19.87036       86.66165       46.32943
H         21.30854       88.81981       44.74825
Ca        20.33620       95.58672       43.85456
O         20.78980       95.32470       41.04099
H         21.24889       95.99394       40.47611
H         19.99074       95.06047       40.52142
O         22.07007       97.77730       42.35231
H         22.94924       97.65763       41.91353
H         21.77817       98.68511       42.08673

Ca 1.0



