%chk=holoCaM.loop1.water2.frame264.chk
%nprocshared=20
%mem=10GB
%nosave
#b3lyp/svp scf=(tight,noincore,xqc) Test 
#IOP(5/87=12) Density=Current Pop=(MK,readradii) iop(6/33=2) iop(6/42=6)

holoCaM.loop1.water2.frame264 

   0  1 
C         26.30300       18.60449       59.92604
C         25.42978       17.95458       58.90221
O         25.84850       17.83549       57.76048
H         27.26459       18.92488       59.46949
H         25.78773       19.49671       60.33803
H         26.51387       17.88299       60.74153
N         24.17959       17.52811       59.23790
C         23.28324       16.90237       58.28269
C         22.13544       17.85361       57.99399
O         21.11985       17.84647       58.67544
C         22.83365       15.52461       58.79043
C         22.06515       14.72821       57.77562
O         21.88258       15.13290       56.63822
O         21.61390       13.51667       58.12379
H         23.84076       17.67919       60.20040
H         23.82286       16.71447       57.32916
H         22.21650       15.64900       59.70537
H         23.73142       14.92310       59.05177
N         22.29273       18.75025       56.98579
C         21.32054       19.75702       56.55459
C         20.07546       19.16815       55.89631
O         19.24207       19.95272       55.46374
C         22.05412       20.71396       55.57597
C         23.06037       21.59818       56.35154
C         22.37231       22.88902       56.83798
C         23.24549       23.74521       57.76696
N         23.25989       23.21384       59.13162
H         23.20696       18.73470       56.50907
H         20.97269       20.35025       57.42722
H         21.36783       21.37307       55.00075
H         22.58272       20.08568       54.82402
H         23.88444       21.91218       55.67577
H         23.52273       21.01900       57.18030
H         21.40587       22.68725       57.34627
H         22.15351       23.48097       55.92149
H         22.80648       24.76657       57.80784
H         24.27855       23.83579       57.36325
H         23.84697       23.83435       59.73436
H         22.28558       23.21620       59.51596
H         23.64400       22.24366       59.15911
N         19.84934       17.82565       55.80550
C         18.66723       17.25042       55.17887
C         17.81318       16.53879       56.22044
O         16.63789       16.85724       56.33385
C         19.09541       16.30224       54.04001
C         19.97252       17.01745       53.03430
O         21.18479       16.52323       52.70355
O         19.57728       18.03901       52.49590
H         20.53400       17.16565       56.18332
H         18.03542       18.04088       54.71475
H         18.18761       15.91821       53.52632
H         19.64216       15.43358       54.46056
N         18.34033       15.56517       57.01608
C         17.58193       14.79777       57.99805
C         17.57257       13.31361       57.65923
O         17.06805       12.52889       58.44883
H         19.33724       15.33180       56.91544
H         16.52927       15.14501       58.07463
H         18.06306       14.94086       58.98958
N         18.10158       12.86389       56.48635
C         18.14142       11.46819       56.04582
C         18.95748       10.52900       56.93210
O         18.89670        9.33212       56.68575
C         18.68607       11.42329       54.59207
C         20.01939       12.12187       54.42546
O         20.45379       12.42881       53.19792
O         20.61892       12.58484       55.38164
H         18.45078       13.56848       55.82650
H         17.09707       11.08663       56.04178
H         17.96172       11.99097       53.96667
H         18.73577       10.38876       54.19407
N         19.75835       10.97073       57.94378
C         20.51371       10.07935       58.81485
C         22.00211       10.04928       58.51903
O         22.70266        9.35190       59.23918
H         19.84839       11.97714       58.10932
H         20.16321        9.02900       58.70993
H         20.32938       10.37672       59.86860
N         22.54570       10.67199       57.43001
C         23.92731       10.45767       57.00058
C         24.66626       11.74781       56.66329
O         24.05623       12.79632       56.51578
C         23.92028        9.53279       55.75342
C         23.46978        8.10291       56.09254
O         23.11979       10.07886       54.73181
H         21.93179       11.20416       56.80694
H         24.50923        9.96061       57.80670
H         24.95219        9.43567       55.35434
H         22.16579        9.89015       54.94177
H         23.48325        7.47811       55.17435
H         24.16625        7.65626       56.83313
H         22.44151        8.08811       56.51116
N         26.02169       11.69865       56.49457
C         26.86195       12.80397       56.04436
C         27.51916       12.36837       54.73838
O         28.23731       11.37787       54.71723
C         27.90154       13.19664       57.14736
C         27.15722       13.87417       58.33375
C         28.99515       14.13516       56.59639
C         28.06094       14.31110       59.49187
H         26.49596       10.79879       56.66963
H         26.24878       13.70812       55.83721
H         28.41816       12.27581       57.49749
H         26.40289       13.16811       58.74004
H         26.62035       14.77876       57.96742
H         29.77370       14.33835       57.35859
H         29.53418       13.66781       55.74798
H         28.55964       15.09674       56.27338
H         27.43788       14.75398       60.29770
H         28.61666       13.44287       59.90172
H         28.77831       15.09707       59.17659
N         27.30344       13.08933       53.60335
C         27.87472       12.78775       52.29511
C         29.21246       13.49014       52.13570
O         29.69049       14.07578       53.09146
C         26.88579       13.21983       51.17224
C         25.53285       12.50724       51.28563
O         26.73399       14.62086       51.12947
H         26.73094       13.93395       53.68134
H         28.03790       11.69174       52.18874
H         27.29015       12.90976       50.18815
H         26.03801       14.89029       51.78127
H         25.02037       12.78185       52.23139
H         24.88718       12.79566       50.43081
H         25.67521       11.40650       51.25699
N         29.87421       13.48976       50.94942
C         31.12912       14.20239       50.71389
C         30.97686       15.69843       50.99481
O         31.73464       16.22454       51.79560
C         31.60238       13.94576       49.25770
C         32.85759       14.74011       48.88950
O         31.89430       12.57904       49.09543
H         29.45153       12.97354       50.16465
H         31.91313       13.79986       51.39577
H         30.80781       14.25918       48.53878
H         31.05616       12.11792       48.83380
H         32.66255       15.83223       48.93964
H         33.69497       14.48512       49.57201
H         33.15499       14.49860       47.84670
N         30.02198       16.43972       50.36332
C         29.85849       17.88600       50.54615
C         29.65220       18.24373       52.00596
O         30.36639       19.09412       52.52100
C         28.66716       18.37988       49.69174
C         28.46735       19.90608       49.74124
C         27.35123       20.33183       48.77591
C         27.15588       21.85423       48.76402
N         26.13048       22.23846       47.79276
H         29.38468       15.94882       49.71854
H         30.77348       18.40163       50.17733
H         27.72974       17.87595       50.01692
H         28.86894       18.09211       48.63673
H         29.41330       20.40674       49.43991
H         28.20770       20.22521       50.77478
H         26.39666       19.84128       49.06807
H         27.62227       20.00190       47.74918
H         28.11442       22.34970       48.49200
H         26.85534       22.20228       49.77730
H         26.02253       23.27843       47.79792
H         26.41498       21.93614       46.83227
H         25.21386       21.80043       48.04127
N         28.69466       17.61372       52.73253
C         28.40113       17.90360       54.13374
C         29.65526       17.77513       54.99415
O         29.98318       18.71643       55.70299
C         27.25116       16.98916       54.62240
C         25.93317       17.31250       53.88019
C         24.77367       16.45619       54.30764
O         24.80544       15.24636       54.17035
O         23.65362       17.03084       54.77606
H         28.16285       16.87017       52.25568
H         28.04598       18.95402       54.23221
H         27.09385       17.14680       55.70774
H         27.53130       15.92978       54.45752
H         26.05596       17.17518       52.78809
H         25.67317       18.37746       54.06350
N         30.43817       16.66756       54.93798
C         31.66947       16.53154       55.68673
H         32.37064       17.35151       55.42006
H         31.46057       16.55567       56.77607
H         32.15724       15.56359       55.43785
H         30.17083       15.90947       54.31260
Ca        21.57787       14.37137       53.22898
O         23.23237       15.07173       50.91785
H         22.26049       15.09288       50.73155
H         23.63483       14.78367       50.06198
O         22.83304       11.33398       52.19453
H         22.12302       10.66313       52.35232
H         22.63797       11.69469       51.29403

Ca 1.0



