%chk=holoCaM.loop4.water3.frame56.chk
%nprocshared=20
%mem=10GB
%nosave
#b3lyp/svp scf=(tight,noincore,xqc) Test 
#IOP(5/87=12) Density=Current Pop=(MK,readradii) iop(6/33=2) iop(6/42=6)

holoCaM.loop4.water3.frame56 

   -3  1 
C        104.92276       -3.92535       31.47817
C        104.39036       -3.50869       32.81305
O        103.37260       -4.04388       33.22499
H        105.92444       -4.38278       31.62125
H        104.25687       -4.68944       31.01837
H        104.99915       -3.05445       30.79841
N        105.03100       -2.56120       33.56040
C        104.62285       -2.25644       34.92714
C        105.29837       -0.99568       35.46613
O        106.51771       -0.94821       35.54690
C        104.97906       -3.46806       35.81730
C        104.63110       -3.25337       37.25275
O        103.47590       -3.04638       37.57906
O        105.59827       -3.29962       38.18815
H        105.85025       -2.08089       33.15775
H        103.52254       -2.08837       34.94285
H        106.07109       -3.66400       35.74135
H        104.44820       -4.37688       35.47009
N        104.52955        0.04992       35.89680
C        105.03881        1.27485       36.51059
C        104.53050        1.46165       37.95389
O        104.93542        2.43574       38.57277
C        104.67839        2.51432       35.62368
C        103.14327        2.75791       35.53052
C        105.31519        2.35878       34.22986
C        102.75443        4.00865       34.73536
H        103.51759       -0.02816       35.78628
H        106.14732        1.22274       36.57920
H        105.13645        3.41119       36.09755
H        102.73433        2.88398       36.55579
H        102.63917        1.89170       35.06175
H        105.18420        3.27681       33.62243
H        106.40844        2.19105       34.32703
H        104.86766        1.50222       33.68193
H        103.04480        3.91737       33.66888
H        101.65094        4.13671       34.76392
H        103.22775        4.91242       35.17318
N        103.64311        0.59988       38.54794
C        103.09174        0.78767       39.90282
C        103.34755       -0.39351       40.85538
O        103.00219       -0.27520       42.02308
C        101.57004        1.06928       39.81544
C        100.78015       -0.07593       39.23426
O        101.41557       -1.20486       38.86922
O         99.57462        0.02659       39.08256
H        103.31249       -0.19923       37.99898
H        103.55934        1.68019       40.37192
H        101.41117        1.96782       39.18013
H        101.17337        1.29396       40.82991
N        103.93726       -1.55317       40.44426
C        104.26287       -2.66957       41.32869
C        103.09968       -3.43352       41.96281
O        103.39266       -4.32450       42.74787
H        104.24531       -1.62758       39.47102
H        104.91252       -2.28147       42.14249
H        104.85758       -3.41325       40.75618
N        101.78254       -3.16113       41.72190
C        100.68761       -3.81535       42.45582
C        100.44834       -5.30464       42.13613
O         99.52317       -5.86401       42.70982
C         99.37572       -2.99870       42.32418
C         98.75795       -2.93886       40.95874
O         99.27489       -3.49012       40.00669
O         97.60623       -2.26390       40.78801
H        101.55039       -2.39221       41.08176
H        100.93174       -3.75137       43.53962
H         99.57418       -1.95613       42.65389
H         98.61846       -3.43087       43.01321
N        101.23390       -6.02783       41.28486
C        101.03753       -7.45554       41.03112
C         99.95715       -7.77649       40.00639
O         99.81652       -8.94387       39.66992
H        102.05826       -5.58609       40.86112
H        100.86561       -8.00017       41.98679
H        101.98021       -7.85481       40.59905
N         99.18373       -6.80755       39.44277
C         98.22006       -7.02712       38.36258
C         98.55869       -6.11151       37.19371
O         99.50942       -5.35624       37.30317
C         96.80339       -6.69645       38.86624
C         96.35466       -7.64108       39.98661
C         94.96309       -7.28932       40.44396
N         94.72872       -6.91957       41.72415
O         94.03532       -7.33915       39.64951
H         99.28813       -5.84597       39.77681
H         98.24275       -8.08078       38.00554
H         96.07956       -6.79208       38.02879
H         96.77936       -5.64434       39.23021
H         97.06417       -7.57108       40.83861
H         96.35679       -8.68931       39.61580
H         95.49563       -6.87160       42.41049
H         93.77494       -6.67783       42.03079
N         97.81344       -6.10347       36.04810
C         98.03352       -5.14822       34.95733
C         96.78179       -4.28851       34.74732
O         95.69007       -4.71534       35.09779
C         98.56617       -5.86655       33.68368
C         97.61869       -6.95180       33.15673
C         98.90602       -4.87309       32.56187
H         97.04076       -6.77940       35.95818
H         98.83621       -4.44106       35.25533
H         99.51790       -6.37063       33.96751
H         98.07477       -7.45291       32.27541
H         97.45437       -7.73576       33.92415
H         96.64264       -6.51711       32.85887
H         99.63672       -4.12115       32.92622
H         99.36860       -5.40555       31.70351
H         97.99533       -4.35446       32.19597
N         96.90377       -3.00397       34.29498
C         95.81186       -2.03113       34.22019
C         95.70470       -1.45361       32.81274
O         96.52408       -1.76876       31.96360
C         96.12138       -0.92477       35.26300
C         95.13375        0.20709       35.38688
N         93.85773       -0.02255       35.77012
O         95.50176        1.35265       35.17139
H         97.84175       -2.66614       34.04632
H         94.84418       -2.51381       34.47698
H         97.12364       -0.49746       35.03431
H         96.15755       -1.40154       36.25880
H         93.53095       -0.97755       35.97261
H         93.19803        0.76187       35.87410
N         94.68497       -0.60684       32.49278
C         94.52217        0.02505       31.18210
C         95.55899        1.11041       30.89083
O         95.54625        1.62720       29.78198
C         93.09092        0.60978       31.06377
C         92.79559        1.67959       32.09876
C         93.40389        2.94722       32.03428
C         91.90565        1.40744       33.15202
C         93.14610        3.90889       33.01212
C         91.65091        2.37129       34.13126
C         92.27295        3.62161       34.06868
O         92.02535        4.53707       35.02623
H         93.95759       -0.45394       33.20227
H         94.61352       -0.76808       30.40669
H         92.39384       -0.24637       31.20261
H         92.90242        1.01305       30.04533
H         94.07688        3.20513       31.23022
H         91.42305        0.44091       33.22841
H         93.62903        4.87580       32.94701
H         90.97531        2.14090       34.94488
H         92.44347        5.40995       35.02143
N         96.46796        1.52411       31.82250
C         97.45580        2.57541       31.58638
C         98.83744        1.95274       31.39922
O         99.80382        2.67825       31.21841
C         97.39802        3.56134       32.78407
C         98.23966        4.83942       32.61251
C         98.12039        5.72247       33.82241
O         97.66230        6.84930       33.72111
O         98.54207        5.28119       35.02363
H         96.50016        1.05905       32.73983
H         97.21637        3.13403       30.65535
H         97.71284        3.02465       33.70729
H         96.34089        3.88280       32.91707
H         97.88705        5.38627       31.71036
H         99.31455        4.60937       32.49131
N         98.99734        0.59782       31.39947
C        100.27569       -0.08040       31.30006
C        100.28284       -0.92521       30.04091
O        101.14773       -0.72585       29.19997
C        100.47887       -0.94402       32.56140
C        100.30173       -0.11091       33.84389
C        100.45137       -0.94715       35.07410
O         99.76639       -1.93989       35.22840
O        101.29832       -0.57917       36.04442
H         98.18094       -0.01118       31.50711
H        101.11195        0.65274       31.25128
H        101.48701       -1.41270       32.53558
H         99.71583       -1.75061       32.57821
H         99.27607        0.31449       33.87045
H        101.02751        0.72757       33.86122
N         99.31555       -1.86623       29.83120
C         99.21712       -2.67417       28.63432
H         98.24621       -2.46620       28.13508
H        100.03384       -2.46583       27.91328
H         99.24968       -3.74769       28.91363
H         98.58832       -2.01446       30.54260
Ca       100.66088       -2.97206       37.73613
O        102.40324       -5.63491       38.31341
H        102.34175       -6.37506       37.65994
H        103.34923       -5.63756       38.60572
O        101.50874       -4.83969       35.47268
H        101.69172       -3.91263       35.17943
H        102.23186       -5.38710       35.07863
O         98.05152       -2.27879       37.43741
H         97.45452       -2.45057       38.20482
H         98.18120       -1.29708       37.43289

Ca 1.0



