%chk=holoCaM.loop1.water2.frame174.chk
%nprocshared=20
%mem=10GB
%nosave
#b3lyp/svp scf=(tight,noincore,xqc) Test 
#IOP(5/87=12) Density=Current Pop=(MK,readradii) iop(6/33=2) iop(6/42=6)

holoCaM.loop1.water2.frame174 

   0  1 
C          7.48442       70.77288       15.73284
C          8.36432       69.63604       16.16605
O          8.22169       68.54603       15.63713
H          6.42185       70.52401       15.93429
H          7.73612       71.70949       16.27457
H          7.61923       70.95200       14.64562
N          9.29659       69.82240       17.13901
C         10.21345       68.79301       17.61252
C          9.84581       68.52695       19.06453
O         10.24793       69.27909       19.94119
C         11.64027       69.34555       17.39734
C         12.84838       68.52887       17.77191
O         12.81323       67.26009       18.21970
O         13.93614       69.06412       17.65262
H          9.36205       70.75320       17.58071
H         10.09012       67.86105       17.01984
H         11.71600       70.29684       17.96660
H         11.75115       69.58918       16.31824
N          8.89373       67.58901       19.34680
C          8.26106       67.44749       20.65798
C          9.19106       66.95469       21.76165
O          8.78218       67.03882       22.91186
C          7.02232       66.51815       20.58023
C          5.92437       67.07583       19.65372
C          4.68810       66.16648       19.63514
C          3.58121       66.76626       18.75475
N          2.39164       65.91515       18.74982
H          8.52392       67.03854       18.56178
H          7.90471       68.45788       20.95986
H          6.58081       66.41979       21.59679
H          7.33480       65.50623       20.23743
H          6.30123       67.18025       18.61466
H          5.62610       68.08113       20.02349
H          4.30105       66.05066       20.67115
H          4.96985       65.16379       19.24435
H          3.95365       66.88308       17.71250
H          3.30540       67.77223       19.14318
H          2.62370       64.97323       18.35923
H          2.01789       65.81311       19.72148
H          1.65680       66.35813       18.15190
N         10.42145       66.41522       21.51654
C         11.32410       65.97314       22.58253
C         12.66516       66.70135       22.55312
O         13.47834       66.44746       23.43129
C         11.49622       64.43658       22.55280
C         12.17039       63.86004       21.33505
O         12.34443       62.52727       21.25589
O         12.57454       64.57037       20.42987
H         10.72203       66.29426       20.54451
H         10.87738       66.20321       23.57425
H         10.49010       63.97294       22.64682
H         12.09092       64.12938       23.44078
N         12.96377       67.63771       21.60619
C         14.20527       68.39065       21.59461
C         15.41186       67.51130       21.36444
O         16.32148       67.51583       22.18051
H         12.28025       67.86993       20.87434
H         14.30357       68.95737       22.54573
H         14.16625       69.12945       20.76350
N         15.49224       66.76092       20.23326
C         16.64928       65.95907       19.84417
C         17.26573       66.47045       18.53804
O         18.20964       65.86385       18.04967
C         16.24002       64.47077       19.75043
C         15.21420       64.12096       18.69851
O         14.75232       64.96158       17.94393
O         14.80439       62.84366       18.58818
H         14.69129       66.78514       19.59428
H         17.44183       66.02263       20.62134
H         15.83623       64.16370       20.73976
H         17.14822       63.86247       19.55117
N         16.79578       67.59780       17.93056
C         17.30395       68.15642       16.69297
C         17.08422       67.24914       15.50553
O         18.00536       67.08896       14.72664
H         16.03961       68.13047       18.37382
H         18.37761       68.42922       16.79582
H         16.74092       69.09311       16.48662
N         15.85253       66.70363       15.27067
C         15.49842       65.91795       14.07489
C         13.97703       65.73019       13.97405
O         13.26254       65.95890       14.93557
C         16.16609       64.50686       13.99826
C         17.68329       64.45886       13.77864
O         15.81830       63.72636       15.11175
H         15.11774       66.94084       15.94989
H         15.78442       66.52659       13.18946
H         15.75198       64.00911       13.09438
H         16.28140       64.11492       15.89925
H         18.24318       64.78351       14.67583
H         17.99286       63.40966       13.58784
H         17.96474       65.07002       12.89417
N         13.41952       65.36789       12.77471
C         11.97689       65.27447       12.55357
C         11.61749       63.92670       11.92692
O         11.98725       63.67635       10.78963
C         11.53840       66.46653       11.64011
C         11.79305       67.84938       12.30459
C         10.08007       66.37121       11.16698
C         10.94644       68.14180       13.55267
H         14.03850       65.23912       11.96218
H         11.42833       65.35557       13.51216
H         12.16428       66.43009       10.72004
H         11.57452       68.64461       11.55870
H         12.86635       67.94305       12.57252
H          9.38039       66.35331       12.02190
H          9.83481       67.23683       10.51589
H          9.92613       65.46125       10.55691
H         11.14176       67.41626       14.36598
H         11.19617       69.15380       13.93257
H          9.86333       68.13648       13.31515
N         10.85924       63.02215       12.61887
C         10.32086       61.79148       12.02861
C          9.13928       62.13267       11.11999
O          8.78855       63.29371       11.02204
C          9.84613       60.79900       13.13241
C         10.98627       60.35242       14.06241
O          8.76684       61.32344       13.86610
H         10.62982       63.23672       13.59418
H         11.12116       61.27901       11.45040
H          9.48413       59.86927       12.64543
H          9.13053       61.87953       14.60030
H         11.40258       61.21386       14.62049
H         10.59942       59.61680       14.79996
H         11.79921       59.87465       13.47708
N          8.44580       61.16905       10.45092
C          7.23340       61.45504        9.67383
C          6.11875       61.99134       10.56425
O          5.51188       62.99543       10.21975
C          6.71764       60.19784        8.93423
C          7.70014       59.73270        7.85765
O          6.47562       59.15459        9.84206
H          8.77583       60.19549       10.51859
H          7.45570       62.21501        8.89036
H          5.76736       60.48485        8.42113
H          5.80764       58.55555        9.41829
H          7.87470       60.55001        7.12554
H          8.67017       59.43085        8.30228
H          7.27155       58.86425        7.31483
N          5.81399       61.36608       11.73586
C          4.75156       61.78130       12.65567
C          4.89314       63.24847       12.98893
O          3.92920       63.99130       12.86470
C          4.81192       60.93426       13.95906
C          4.19743       59.52119       13.83534
C          4.76740       58.65618       12.70490
C          4.08729       57.28475       12.64285
N          4.55917       56.52824       11.48280
H          6.41808       60.57900       12.00954
H          3.74804       61.64677       12.19555
H          4.21569       61.43792       14.75299
H          5.86187       60.88429       14.32665
H          3.10610       59.63841       13.65899
H          4.33338       58.99775       14.80792
H          5.86158       58.51507       12.84316
H          4.56694       59.16392       11.73969
H          2.98573       57.41901       12.55808
H          4.30384       56.71819       13.57520
H          4.30807       57.03523       10.60268
H          5.59576       56.39782       11.52971
H          4.09498       55.59205       11.46952
N          6.08587       63.73329       13.40082
C          6.30712       65.12534       13.76117
C          6.05695       66.04217       12.57136
O          5.22588       66.93228       12.68323
C          7.71750       65.27136       14.35475
C          7.81733       64.42000       15.64050
C          9.13722       64.56874       16.30021
O         10.17283       64.35417       15.69412
O          9.18913       64.95098       17.57922
H          6.87001       63.06770       13.45313
H          5.59719       65.41434       14.56888
H          7.90347       66.33412       14.60214
H          8.48542       64.94218       13.62031
H          7.66786       63.34791       15.42971
H          7.02746       64.73102       16.35833
N          6.70353       65.85439       11.38907
C          6.46717       66.64731       10.19799
H          5.71855       67.44973       10.36203
H          7.41680       67.11363        9.86460
H          6.09633       65.98496        9.38642
H          7.37779       65.09075       11.31389
Ca        11.13930       65.81133       18.14025
O         13.28243       62.50575       15.96692
H         13.38688       62.67299       14.99645
H         13.55828       61.56211       16.08691
O         10.83426       61.99611       18.03096
H         10.04713       62.28242       18.55904
H         11.57003       61.94336       18.69111

Ca 1.0



