%chk=holoCaM.loop4.water3.frame355.chk
%nprocshared=20
%mem=10GB
%nosave
#b3lyp/svp scf=(tight,noincore,xqc) Test 
#IOP(5/87=12) Density=Current Pop=(MK,readradii) iop(6/33=2) iop(6/42=6)

holoCaM.loop4.water3.frame355 

   -3  1 
C         11.27920       39.68839       85.45244
C         11.05511       40.35495       84.12988
O          9.95228       40.82238       83.88266
H         12.08123       40.21706       86.00644
H         10.34889       39.70484       86.06096
H         11.57522       38.63065       85.28987
N         12.05681       40.40232       83.20520
C         11.86164       40.98071       81.88160
C         13.01745       40.61417       80.96013
O         14.17318       40.82813       81.29818
C         11.69767       42.51697       81.92599
C         11.06421       43.06340       80.66218
O         10.99714       44.26944       80.50248
O         10.44016       42.22799       79.79678
H         12.95354       39.94601       83.43474
H         10.92319       40.53355       81.48399
H         12.68977       42.98303       82.11075
H         11.02476       42.82506       82.75241
N         12.73955       40.06561       79.75417
C         13.70237       39.56820       78.78665
C         13.71919       40.46799       77.55222
O         14.80890       40.72329       77.05760
C         13.32318       38.07919       78.47663
C         13.65139       37.20394       79.72141
C         14.03039       37.53299       77.22156
C         13.10567       35.77485       79.65710
H         11.75341       39.97490       79.50204
H         14.74174       39.57787       79.18925
H         12.23041       38.03371       78.26972
H         13.21096       37.66358       80.63138
H         14.75530       37.16607       79.86227
H         15.13308       37.55861       77.33951
H         13.71025       36.49375       77.00453
H         13.74449       38.12832       76.32911
H         13.52127       35.20443       78.80388
H         13.38651       35.23582       80.58766
H         11.99855       35.79211       79.58585
N         12.57774       40.95531       76.97813
C         12.57402       41.67075       75.69742
C         12.01821       43.10220       75.74011
O         11.98203       43.72218       74.68551
C         11.85709       40.79378       74.64585
C         10.40616       40.50435       74.91535
O          9.78523       41.00632       75.99088
O          9.78092       39.79251       74.14734
H         11.67732       40.75238       77.42869
H         13.61439       41.78198       75.32152
H         12.39121       39.81957       74.59859
H         11.93744       41.27684       73.64937
N         11.63049       43.72674       76.89200
C         11.21541       45.13171       76.93072
C          9.87729       45.45209       76.27304
O          9.52991       46.62424       76.23149
H         11.71898       43.22930       77.78718
H         12.00970       45.74774       76.45366
H         11.13528       45.45818       77.98921
N          9.06900       44.48987       75.74773
C          7.79921       44.76051       75.06983
C          6.66982       45.33066       75.94208
O          5.59092       45.54727       75.40630
C          7.30930       43.47409       74.38176
C          6.82447       42.37727       75.29903
O          7.36920       42.08916       76.50694
O          5.94056       41.64447       74.88458
H          9.40350       43.52033       75.76386
H          8.00524       45.48976       74.25525
H          8.09962       43.06904       73.71424
H          6.46118       43.74195       73.71119
N          6.81815       45.59953       77.26918
C          5.73979       46.11207       78.10804
C          4.68482       45.07443       78.46760
O          3.76789       45.42714       79.19833
H          7.73439       45.48009       77.70472
H          5.27747       46.99977       77.62296
H          6.17553       46.45361       79.07078
N          4.74789       43.78381       78.02947
C          3.79897       42.73503       78.39320
C          4.52786       41.56273       79.04726
O          5.73791       41.63057       79.23483
C          3.04929       42.25567       77.13094
C          2.16091       43.34987       76.51917
C          1.32818       42.83576       75.36508
N          0.44536       43.65674       74.75310
O          1.43113       41.67712       74.98610
H          5.51283       43.50741       77.40499
H          3.04237       43.10589       79.12098
H          2.37041       41.42258       77.40083
H          3.77434       41.88168       76.37735
H          2.78628       44.19954       76.17121
H          1.46197       43.71778       77.30198
H          0.33409       44.63320       75.06195
H         -0.13626       43.31108       73.97510
N          3.84430       40.43702       79.40280
C          4.44445       39.25655       80.01208
C          4.38478       38.09625       79.02240
O          3.31195       37.78038       78.52344
C          3.71590       38.93118       81.34707
C          4.23613       37.63115       81.98353
C          3.89056       40.08234       82.35261
H          2.82903       40.39342       79.22583
H          5.50950       39.43976       80.25961
H          2.62900       38.79908       81.14718
H          4.04827       36.76825       81.31397
H          5.32499       37.69865       82.19235
H          3.70013       37.42714       82.93512
H          4.96646       40.23169       82.59155
H          3.48195       41.03106       81.94680
H          3.34875       39.85535       83.29589
N          5.51676       37.38845       78.73526
C          5.57604       36.22116       77.85429
C          5.47004       34.95570       78.69126
O          5.40066       35.06292       79.90094
C          6.91607       36.28129       77.07709
C          7.14069       35.19606       76.06181
N          6.32771       35.07991       74.98788
O          8.08637       34.43305       76.19222
H          6.37420       37.62912       79.25193
H          4.71608       36.23634       77.14988
H          7.75006       36.26761       77.81591
H          6.96332       37.22917       76.51811
H          5.54071       35.73066       74.85247
H          6.49625       34.34733       74.28318
N          5.39141       33.71941       78.12758
C          5.28266       32.49668       78.92247
C          6.54056       32.22167       79.74495
O          6.40777       31.87287       80.90959
C          4.79429       31.30411       78.06593
C          5.60833       30.95545       76.84108
C          5.05465       31.15798       75.56247
C          6.89024       30.39595       76.94564
C          5.77390       30.82100       74.41462
C          7.60899       30.05668       75.79395
C          7.05266       30.27025       74.52440
O          7.73210       29.94508       73.40648
H          5.35716       33.64716       77.10155
H          4.45016       32.62656       79.65232
H          3.77081       31.58623       77.72993
H          4.67595       30.39993       78.70141
H          4.06244       31.57806       75.44970
H          7.32955       30.20697       77.91426
H          5.33275       30.98439       73.43911
H          8.59580       29.62251       75.88925
H          8.61783       29.55686       73.43714
N          7.79031       32.40067       79.22847
C          9.01863       32.19902       80.00481
C          9.06353       33.13803       81.19796
O          9.27873       32.68385       82.31316
C         10.27515       32.44294       79.13188
C         10.44735       31.46787       77.95091
C         10.70498       30.04221       78.37319
O         11.76330       29.50613       78.08543
O          9.76885       29.33276       79.03109
H          7.86683       32.71953       78.25200
H          9.05971       31.16146       80.38950
H         11.18852       32.37038       79.76453
H         10.23205       33.47750       78.72437
H         11.32407       31.81652       77.36226
H          9.56726       31.50497       77.28111
N          8.84585       34.46818       81.02281
C          8.87626       35.46010       82.09766
C          7.89960       35.08448       83.20209
O          8.29170       35.02624       84.35887
C          8.51194       36.85669       81.54263
C          9.49855       37.35546       80.46615
C          9.06865       38.65955       79.85887
O          9.68558       39.11192       78.91168
O          7.98987       39.32036       80.31324
H          8.61201       34.77361       80.06782
H          9.90071       35.51953       82.52936
H          8.49474       37.59457       82.37549
H          7.49298       36.80250       81.10455
H          9.55911       36.63164       79.63154
H         10.51511       37.46846       80.90116
N          6.60910       34.78986       82.90100
C          5.61732       34.42640       83.88527
H          4.65734       34.19122       83.37420
H          5.94624       33.52759       84.44699
H          5.44837       35.27383       84.58078
H          6.32462       34.80048       81.92366
Ca         8.97058       42.61992       78.07655
O          7.82544       42.04108       81.31762
H          7.33827       42.39551       82.10220
H          8.56997       41.51716       81.70449
O          7.34462       39.52601       77.19623
H          6.73009       39.53676       76.42011
H          8.19806       39.19250       76.82217
O          8.19391       44.69541       80.09663
H          8.00719       45.58820       80.47677
H          8.91040       44.86511       79.43628

Ca 1.0



