%chk=holoCaM.loop2.water2.frame328.chk
%nprocshared=20
%mem=10GB
%nosave
#b3lyp/svp scf=(tight,noincore,xqc) Test 
#IOP(5/87=12) Density=Current Pop=(MK,readradii) iop(6/33=2) iop(6/42=6)

holoCaM.loop2.water2.frame328 

   -2  1 
C          2.36733       35.71091      -12.02894
C          1.32613       34.69248      -12.39819
O          0.44346       34.41081      -11.60336
H          3.38025       35.26236      -12.09414
H          2.30872       36.56366      -12.74101
H          2.20413       36.10147      -11.00269
N          1.35974       34.12646      -13.63207
C          0.32876       33.23561      -14.15503
C          0.25667       31.90290      -13.40688
O          1.28674       31.26325      -13.24633
C          0.62099       32.95627      -15.64490
C         -0.55615       32.36751      -16.36189
O         -0.44674       32.03015      -17.52896
O         -1.75624       32.29250      -15.75789
H          2.12808       34.41279      -14.25992
H         -0.64014       33.77913      -14.09620
H          1.50409       32.28541      -15.72670
H          0.85593       33.90440      -16.17384
N         -0.94371       31.39465      -12.98968
C         -1.09982       30.10669      -12.31219
C         -1.96167       29.09674      -13.08522
O         -2.04721       27.96507      -12.62775
C         -1.73147       30.34915      -10.93542
H         -1.78844       31.94418      -13.16938
H         -0.10452       29.63608      -12.16309
H         -1.10396       31.04585      -10.34086
H         -2.74398       30.79676      -11.05041
H         -1.83028       29.39713      -10.37106
N         -2.66522       29.42016      -14.21301
C         -3.62545       28.50267      -14.84524
C         -3.72325       28.62541      -16.36865
O         -4.46159       27.84392      -16.95362
C         -5.02042       28.72971      -14.22510
C         -5.36330       30.18891      -14.18822
O         -5.36292       30.93591      -15.30514
O         -5.54744       30.73356      -13.11087
H         -2.67701       30.40285      -14.50102
H         -3.33221       27.44787      -14.64969
H         -5.00599       28.35913      -13.17725
H         -5.80008       28.15751      -14.77244
N         -3.04921       29.56408      -17.08520
C         -3.16225       29.70075      -18.52512
C         -4.57454       30.00291      -18.98466
O         -5.08273       29.26744      -19.81883
H         -2.41478       30.20907      -16.61383
H         -2.79145       28.77398      -19.01479
H         -2.50999       30.53814      -18.85812
N         -5.24137       31.10691      -18.53595
C         -6.51330       31.56065      -19.09999
C         -6.31341       32.87575      -19.86484
O         -7.29309       33.48406      -20.27244
C         -7.62745       31.64281      -18.02257
C         -7.51160       32.75487      -17.01354
N         -8.48179       32.93290      -16.08834
O         -6.56569       33.51892      -17.03960
H         -4.78957       31.69894      -17.82537
H         -6.89243       30.82268      -19.83981
H         -7.69186       30.66873      -17.48957
H         -8.59324       31.80441      -18.54874
H         -9.30048       32.30863      -16.05277
H         -8.42286       33.71082      -15.41643
N         -5.05556       33.32891      -20.16051
C         -4.76123       34.50947      -20.95512
C         -4.85446       35.83108      -20.21607
O         -4.51840       36.83339      -20.82993
H         -4.24132       32.75196      -19.91424
H         -5.38566       34.51484      -21.87477
H         -3.70041       34.43430      -21.27945
N         -5.29046       35.93736      -18.92709
C         -5.38476       37.21363      -18.21810
C         -4.72293       37.17418      -16.84276
O         -4.31649       36.12230      -16.37294
C         -6.87982       37.60896      -18.07023
C         -7.49953       37.92097      -19.43333
O         -7.61799       36.58065      -17.45850
H         -5.61975       35.09832      -18.44639
H         -4.86777       38.01531      -18.78862
H         -6.98560       38.54511      -17.47804
H         -7.34250       36.54643      -16.50593
H         -6.94077       38.74875      -19.92211
H         -7.47990       37.03062      -20.09528
H         -8.55396       38.24358      -19.30306
N         -4.66417       38.32985      -16.11926
C         -4.28405       38.43199      -14.71629
C         -5.56700       38.38008      -13.90368
O         -6.52465       39.07459      -14.21271
C         -3.42373       39.71908      -14.46924
C         -1.95486       39.42977      -14.88729
C         -3.48584       40.18943      -12.99840
C         -1.01298       40.63448      -14.80181
H         -5.06182       39.17956      -16.54605
H         -3.68107       37.55654      -14.39325
H         -3.84215       40.55282      -15.07559
H         -1.93465       39.06130      -15.93476
H         -1.54338       38.62805      -14.23207
H         -3.09501       39.41445      -12.30823
H         -2.92247       41.13253      -12.85278
H         -4.53134       40.43468      -12.71519
H          0.00680       40.32325      -15.11442
H         -1.36106       41.44425      -15.47523
H         -0.92648       41.02241      -13.76670
N         -5.61811       37.56418      -12.81541
C         -6.79083       37.34452      -11.97994
C         -6.61910       38.08967      -10.67295
O         -5.63050       38.78226      -10.51617
C         -6.89685       35.83858      -11.66457
C         -6.87150       34.95145      -12.86838
O         -5.81359       34.98667      -13.69898
O         -7.73895       34.10862      -13.02508
H         -4.75710       37.07678      -12.53724
H         -7.71217       37.70586      -12.48588
H         -7.80794       35.62540      -11.06624
H         -6.01252       35.54654      -11.05476
N         -7.54751       38.00078       -9.67928
C         -7.36476       38.66601       -8.39530
C         -6.15677       38.10800       -7.62704
O         -5.29078       38.91575       -7.31459
C         -8.67116       38.65131       -7.56926
C         -8.47368       39.27530       -6.20852
C         -8.04622       40.60932       -6.08371
C         -8.70161       38.51631       -5.04765
C         -7.84386       41.16872       -4.81963
C         -8.50193       39.08171       -3.78564
C         -8.07155       40.40600       -3.67154
H         -8.40801       37.45941       -9.84548
H         -7.16823       39.74217       -8.59984
H         -9.06581       37.62969       -7.45722
H         -9.45212       39.21532       -8.12340
H         -7.86261       41.21558       -6.96126
H         -9.02856       37.48597       -5.11782
H         -7.50830       42.19368       -4.73122
H         -8.67793       38.49112       -2.89617
H         -7.91378       40.84099       -2.69365
N         -5.99059       36.78971       -7.27197
C         -4.83064       36.28131       -6.53772
C         -3.50402       36.70412       -7.14059
O         -2.61359       37.14221       -6.42834
C         -4.96571       34.75341       -6.66035
C         -6.45940       34.57611       -6.67472
C         -6.89614       35.70310       -7.60517
H         -4.90618       36.59622       -5.47288
H         -4.61351       34.40607       -7.65948
H         -4.41814       34.17781       -5.88367
H         -6.81897       33.56709       -6.96973
H         -6.82920       34.80296       -5.64823
H         -6.75903       35.44154       -8.67617
H         -7.95468       35.89218       -7.38431
N         -3.33083       36.57898       -8.48021
C         -2.09739       36.86608       -9.20277
C         -1.71952       38.32812       -9.04349
O         -0.58836       38.62116       -8.68275
C         -2.28198       36.50082      -10.69401
C         -2.66313       35.00760      -10.86975
C         -2.97065       34.61814      -12.28062
O         -2.82799       35.39808      -13.20647
O         -3.48074       33.39721      -12.51342
H         -4.15256       36.26620       -9.01337
H         -1.27385       36.22620       -8.81453
H         -1.34389       36.70962      -11.25414
H         -3.08413       37.13881      -11.11273
H         -3.58445       34.76385      -10.31235
H         -1.86030       34.35305      -10.47192
N         -2.64387       39.30057       -9.25893
C         -2.36925       40.71070       -9.10453
H         -1.60917       41.03212       -9.84573
H         -3.30150       41.29320       -9.27551
H         -2.01078       40.92012       -8.07463
H         -3.59466       39.02486       -9.51017
Ca        -5.29014       33.09618      -14.74753
O         -3.22674       33.82876      -17.70700
H         -2.87226       32.95694      -18.00878
H         -2.80025       34.48420      -18.31272
O         -1.55252       35.54241      -16.01802
H         -0.78822       35.80796      -16.58683
H         -1.64831       36.28295      -15.36976

Ca 1.0



