%chk=holoCaM-CaMKII.loop3.water2.frame363.chk
%nprocshared=20
%mem=10GB
%nosave
#b3lyp/svp scf=(tight,noincore,xqc) Test 
#IOP(5/87=12) Density=Current Pop=(MK,readradii) iop(6/33=2) iop(6/42=6)

holoCaM-CaMKII.loop3.water2.frame363 

   0  1 
C         58.14760       68.03650       27.04531
C         58.38391       69.06731       25.98286
O         58.64741       70.21150       26.31074
H         57.12281       67.62331       26.93540
H         58.88563       67.21357       26.93720
H         58.24983       68.48040       28.05802
N         58.32469       68.70508       24.67379
C         58.53885       69.60682       23.54364
C         57.38174       70.60293       23.40910
O         56.46501       70.34611       22.63904
C         58.65180       68.74181       22.26613
C         58.97019       69.52268       21.02906
O         59.03318       68.93120       19.96627
O         59.32014       70.82337       21.08996
H         58.14751       67.70656       24.47656
H         59.51005       70.13810       23.66273
H         57.69530       68.19796       22.10631
H         59.45591       67.98397       22.39779
N         57.32896       71.74584       24.15169
C         56.17261       72.63946       24.11120
C         56.01933       73.41298       22.79776
O         54.97815       74.03107       22.62584
C         56.15703       73.57493       25.34011
C         57.23387       74.67079       25.33055
C         57.21039       75.44743       26.65300
C         58.19682       76.62070       26.63317
N         58.18709       77.32829       27.91355
H         58.08359       71.93689       24.82000
H         55.27626       71.99004       24.23055
H         56.27609       72.94030       26.24699
H         55.16364       74.07072       25.40456
H         57.03803       75.36136       24.48156
H         58.24056       74.23155       25.20487
H         57.47655       74.75371       27.48190
H         56.18829       75.84508       26.83552
H         57.90641       77.32532       25.82209
H         59.22534       76.24980       26.42692
H         58.83436       78.14736       27.85828
H         57.22342       77.67310       28.13001
H         58.51202       76.69071       28.67660
N         56.99469       73.43978       21.83759
C         56.84522       74.13085       20.55018
C         56.95077       73.17751       19.35649
O         56.87392       73.64710       18.22919
C         57.83620       75.31429       20.42099
C         59.29933       74.97221       20.44368
O         60.11999       75.85681       20.26147
O         59.72367       73.71826       20.66665
H         57.87924       72.94990       22.02393
H         55.83652       74.59179       20.47663
H         57.64143       76.04310       21.23673
H         57.62823       75.82947       19.45673
N         57.07003       71.82771       19.51537
C         57.08815       70.88328       18.40812
C         58.32375       70.92911       17.52002
O         58.33082       70.18766       16.54719
H         57.05482       71.43111       20.45967
H         56.18441       71.05746       17.78576
H         57.00523       69.85237       18.81170
N         59.38903       71.75832       17.74487
C         60.48946       71.88012       16.78352
C         61.34908       70.62589       16.63027
O         62.15102       70.60186       15.70660
C         61.37387       73.11125       17.08047
C         62.27318       72.94736       18.28206
N         63.61285       73.08472       18.16240
O         61.79505       72.70033       19.37456
H         59.36913       72.38602       18.55663
H         60.00762       72.08451       15.80055
H         60.71849       73.99726       17.22511
H         62.00520       73.31268       16.18762
H         64.04928       73.30069       17.25430
H         64.21554       72.98764       18.99096
N         61.24792       69.55508       17.47301
C         61.98389       68.31451       17.27076
C         62.87291       67.89443       18.42522
O         63.46415       66.83194       18.29346
H         60.59123       69.59280       18.25894
H         62.62189       68.36502       16.36303
H         61.24070       67.50425       17.10663
N         63.01545       68.61083       19.58367
C         63.85883       68.12658       20.68692
C         63.55559       68.85420       22.02324
O         62.17394       68.86290       22.15249
C         65.35389       68.18481       20.28804
C         65.83391       69.57283       19.93600
C         66.25517       70.46692       20.93432
C         65.89723       69.97096       18.58930
C         66.74046       71.73280       20.58413
C         66.36971       71.23986       18.24598
C         66.79728       72.12363       19.24006
O         67.25612       73.34337       18.89317
H         62.47974       69.48132       19.70185
H         63.57523       67.06500       20.87323
H         65.50127       67.53316       19.40450
H         66.02436       67.74544       21.05344
H         66.22479       70.18087       21.97859
H         65.57519       69.30000       17.80316
H         67.07411       72.41358       21.35276
H         66.40508       71.53573       17.20530
H         67.55986       73.98591       19.55034
N         64.08708       68.07711       23.14989
C         63.89424       68.69157       24.47716
C         65.15493       69.45264       24.87105
O         66.22387       68.85619       24.85552
C         63.60182       67.57404       25.52848
C         62.45102       66.63822       25.06641
C         63.26289       68.20506       26.89786
C         62.26735       65.41798       25.97586
H         65.05431       67.71156       23.01306
H         63.00397       69.36140       24.47317
H         64.51811       66.95111       25.62820
H         62.69027       66.23204       24.06108
H         61.49404       67.20053       24.99218
H         62.33074       68.80850       26.82909
H         63.12815       67.43655       27.68346
H         64.08214       68.86023       27.24550
H         61.48662       64.75211       25.55249
H         63.21781       64.84480       26.03992
H         61.94449       65.70451       26.99607
N         65.10072       70.73887       25.31461
C         66.27058       71.44189       25.83285
C         66.20411       71.48070       27.34292
O         65.23710       71.00560       27.91172
C         66.35892       72.85485       25.23540
O         66.53800       72.78957       23.84948
H         64.18432       71.19603       25.40387
H         67.20520       70.89356       25.58434
H         67.19470       73.43562       25.68674
H         65.42781       73.42234       25.45178
H         67.50174       72.60112       23.69959
N         67.23336       71.98845       28.06971
C         67.25629       71.98392       29.52915
C         66.09029       72.76044       30.10747
O         65.39843       72.23420       30.96742
C         68.57616       72.56599       30.03520
H         68.04827       72.36658       27.56171
H         67.20605       70.93264       29.89446
H         69.42183       71.95993       29.64418
H         68.70049       73.61724       29.70068
H         68.60571       72.52795       31.14504
N         65.79255       74.00713       29.64611
C         64.67573       74.80767       30.14096
C         63.37113       74.03146       30.09838
O         62.68500       73.97101       31.10942
C         64.54666       76.09241       29.31089
H         66.37194       74.38879       28.88186
H         64.87681       75.10656       31.19373
H         64.34275       75.85627       28.24387
H         63.71947       76.72273       29.70179
H         65.48834       76.67938       29.36907
N         62.98437       73.38714       28.96414
C         61.73903       72.63036       28.85234
C         61.67606       71.50789       29.88247
O         60.72685       71.47378       30.65293
C         61.56085       72.07322       27.42021
C         61.45773       73.20902       26.38058
C         61.21684       72.69030       24.99176
O         60.24883       73.06470       24.35412
O         62.08713       71.84433       24.42000
H         63.61688       73.43584       28.15179
H         60.88183       73.31568       29.04086
H         60.62047       71.48414       27.38929
H         62.40531       71.39595       27.16524
H         62.39599       73.79837       26.35708
H         60.62620       73.89134       26.66530
N         62.66054       70.57103       29.96728
C         62.66738       69.48315       30.92564
H         63.54942       69.58481       31.59356
H         61.75193       69.46188       31.55261
H         62.74416       68.51747       30.38292
H         63.46135       70.63578       29.33601
Ca        61.45907       70.92284       21.62004
O         64.05006       72.50464       21.93820
H         64.16350       72.42265       22.91734
H         64.57708       73.30672       21.69476
O         62.47497       74.86936       22.46790
H         63.10159       75.46886       22.94479
H         61.73481       75.46094       22.18777

Ca 1.0



