%chk=holoCaM-CaMKII.loop2.water2.frame431.chk
%nprocshared=20
%mem=10GB
%nosave
#b3lyp/svp scf=(tight,noincore,xqc) Test 
#IOP(5/87=12) Density=Current Pop=(MK,readradii) iop(6/33=2) iop(6/42=6)

holoCaM-CaMKII.loop2.water2.frame431 

   -2  1 
C         97.81719       69.69589       13.44143
C         99.31239       69.73752       13.55922
O         99.88261       70.81372       13.59454
H         97.39139       70.72104       13.40284
H         97.52405       69.14165       12.52667
H         97.39644       69.17640       14.33015
N        100.01132       68.57804       13.65638
C        101.44467       68.51012       13.91684
C        102.30791       69.11932       12.81947
O        102.20819       68.69797       11.67576
C        101.85435       67.03993       14.11283
C        103.30546       66.94790       14.45402
O        103.77997       67.65324       15.49355
O        104.06327       66.28439       13.76525
H         99.47555       67.69633       13.61653
H        101.64181       69.03751       14.87659
H        101.64024       66.44814       13.19595
H        101.26925       66.60615       14.94900
N        103.25546       70.05289       13.14130
C        104.23358       70.58448       12.19868
C        105.68833       70.33038       12.62915
O        106.56811       70.69583       11.86122
C        104.00737       72.09505       12.06082
H        103.30011       70.39324       14.10979
H        104.09344       70.11928       11.19925
H        104.16485       72.60066       13.03937
H        104.70770       72.53391       11.31826
H        102.96903       72.29685       11.72246
N        106.03313       69.78784       13.84208
C        107.41855       69.74574       14.33133
C        107.83915       68.42559       15.00570
O        108.99053       68.33845       15.41096
C        107.64738       70.96177       15.25563
C        106.59819       71.09674       16.32154
O        105.90484       72.09986       16.37677
O        106.39097       70.10527       17.19618
H        105.29170       69.55138       14.51254
H        108.13165       69.87448       13.48703
H        107.61297       71.88208       14.63137
H        108.65833       70.91066       15.71442
N        107.01329       67.34632       15.11833
C        107.44011       66.04365       15.63214
C        107.74259       65.95017       17.12458
O        108.12368       64.86904       17.55179
H        106.07126       67.40812       14.72704
H        108.33530       65.71484       15.06061
H        106.63104       65.30710       15.43467
N        107.59966       66.99826       17.98398
C        107.91154       66.92297       19.41773
C        106.89530       66.13144       20.26225
O        107.02125       66.14816       21.47901
C        108.17735       68.34360       19.97449
C        107.03480       69.32089       19.95394
N        107.27598       70.60895       20.29117
O        105.91213       68.97787       19.61658
H        107.32381       67.90470       17.59332
H        108.89863       66.42342       19.53769
H        108.99123       68.78219       19.35547
H        108.55165       68.27743       21.01898
H        108.22188       70.91330       20.56250
H        106.53521       71.31620       20.25746
N        105.91100       65.36568       19.70320
C        104.97725       64.54358       20.46415
C        103.88950       65.30346       21.20327
O        103.07802       64.64178       21.83701
H        105.86388       65.26765       18.68636
H        105.54616       63.90336       21.17319
H        104.45064       63.86842       19.75492
N        103.79121       66.66340       21.18618
C        102.76949       67.41182       21.91923
C        101.99402       68.34309       20.99142
O        102.28827       68.39434       19.80487
C        103.46006       68.20751       23.05731
C        104.10772       67.26230       24.07319
O        104.44905       69.05986       22.54023
H        104.49078       67.20826       20.66725
H        102.02625       66.72756       22.38603
H        102.71351       68.80083       23.63168
H        103.97997       69.85248       22.17472
H        103.33886       66.59415       24.51773
H        104.89300       66.63886       23.59599
H        104.57693       67.84999       24.88985
N        101.00857       69.14725       21.48787
C        100.29272       70.14923       20.70268
C        100.77365       71.51384       21.15820
O        100.71576       71.80650       22.34598
C         98.74523       69.99943       20.84632
C         98.28871       68.62428       20.29062
C         98.02229       71.15470       20.11292
C         96.78317       68.36400       20.41871
H        100.79617       69.10227       22.49681
H        100.53047       70.04565       19.62346
H         98.47656       70.06149       21.92483
H         98.81190       67.81907       20.84892
H         98.56835       68.54077       19.21717
H         98.32868       72.13980       20.52120
H         98.24766       71.13505       19.02533
H         96.92487       71.10560       20.25782
H         96.55132       67.34569       20.04152
H         96.46414       68.43238       21.47986
H         96.19078       69.07607       19.80850
N        101.24556       72.40946       20.24563
C        101.76071       73.72726       20.58489
C        100.79123       74.81136       20.14598
O         99.73748       74.49295       19.62256
C        103.17014       73.90484       19.98082
C        104.15397       72.99012       20.66567
O        104.21614       71.67230       20.38992
O        104.94254       73.45835       21.47053
H        101.21554       72.16282       19.24736
H        101.84022       73.84825       21.68787
H        103.50311       74.94385       20.17574
H        103.18078       73.76165       18.87635
N        101.05213       76.12209       20.41585
C        100.11075       77.21428       20.18246
C         99.70171       77.39084       18.71541
O         98.50323       77.40800       18.47640
C        100.67829       78.54376       20.72203
C         99.62923       79.62767       20.69497
C         98.58703       79.62256       21.63900
C         99.67385       80.64135       19.72454
C         97.61102       80.62275       21.61678
C         98.68579       81.63031       19.69553
C         97.65812       81.62385       20.64325
H        101.94357       76.35093       20.88127
H         99.19676       76.99003       20.77949
H        101.55898       78.83560       20.11960
H        101.03523       78.43237       21.76939
H         98.53836       78.85148       22.39851
H        100.46052       80.65401       18.98051
H         96.81739       80.62045       22.35311
H         98.71628       82.40138       18.93718
H         96.89768       82.39356       20.62268
N        100.58997       77.55723       17.67844
C        100.17504       77.78628       16.29490
C         99.33688       76.63583       15.77157
O         98.36464       76.87909       15.06968
C        101.50273       77.97845       15.54468
C        102.48198       77.16025       16.35556
C        102.03630       77.47182       17.78216
H         99.58521       78.72252       16.17438
H        101.47369       77.77017       14.45311
H        101.81756       79.03820       15.68175
H        102.29547       76.08837       16.13809
H        103.55587       77.36164       16.15532
H        102.40343       76.65490       18.43146
H        102.43270       78.45828       18.10350
N         99.61198       75.36096       16.13995
C         98.82090       74.20750       15.73696
C         97.39842       74.33233       16.26049
O         96.46172       74.17861       15.49077
C         99.45129       72.92455       16.29637
C        100.90111       72.70487       15.81106
C        101.49316       71.49381       16.45644
O        102.80158       71.24712       16.33781
O        100.83586       70.80863       17.22109
H        100.39988       75.21235       16.78219
H         98.81396       74.11558       14.62795
H         98.83277       72.05115       15.99274
H         99.45444       72.98063       17.40833
H        101.54567       73.55203       16.11615
H        100.96240       72.63703       14.70851
N         97.17732       74.62821       17.57210
C         95.87166       74.74686       18.18307
H         95.05187       74.50332       17.47808
H         95.81486       74.05322       19.04936
H         95.73414       75.78451       18.55526
H         97.98132       74.80518       18.17744
Ca       103.62893       70.90272       18.37394
O        103.93649       66.72825       18.01861
H        104.74575       66.67513       17.45098
H        103.46275       65.87465       17.85391
O        101.24940       67.52641       17.36580
H        100.72174       68.35284       17.25109
H        100.57509       66.80325       17.36053

Ca 1.0



