%chk=holoCaM.loop4.water3.frame30.chk
%nprocshared=20
%mem=10GB
%nosave
#b3lyp/svp scf=(tight,noincore,xqc) Test 
#IOP(5/87=12) Density=Current Pop=(MK,readradii) iop(6/33=2) iop(6/42=6)

holoCaM.loop4.water3.frame30 

   -3  1 
C         84.61815      109.00982       16.87854
C         83.38846      109.85983       16.71667
O         82.37201      109.56490       17.32199
H         85.43025      109.62792       17.32168
H         84.42710      108.15333       17.55996
H         84.95759      108.62522       15.89522
N         83.44076      110.97713       15.94469
C         82.37377      111.97073       15.84244
C         82.01494      112.21279       14.37983
O         82.89178      112.56095       13.60112
C         82.90588      113.21999       16.57216
C         82.16601      114.51893       16.42657
O         80.86241      114.69041       16.69895
O         82.79248      115.49688       16.05195
H         84.33490      111.18874       15.47246
H         81.45719      111.64274       16.37959
H         83.94510      113.41467       16.22301
H         82.96435      112.97174       17.65412
N         80.72435      112.04674       13.94750
C         80.28025      112.22639       12.55836
C         79.29902      113.39427       12.39729
O         79.02465      113.76785       11.26686
C         79.61349      110.91000       12.01788
C         78.20237      110.68216       12.64744
C         80.55062      109.70930       12.23644
C         77.51874      109.36065       12.29854
H         80.02836      111.76194       14.64344
H         81.16893      112.45994       11.93238
H         79.46226      111.01432       10.92037
H         77.52578      111.49852       12.31492
H         78.25897      110.72937       13.73954
H         80.13552      108.79397       11.76605
H         81.53608      109.90316       11.76500
H         80.69932      109.51215       13.31832
H         78.08254      108.50460       12.72403
H         76.50619      109.34502       12.75883
H         77.41590      109.24369       11.20104
N         78.64943      113.93088       13.47291
C         77.58251      114.91991       13.39559
C         77.81372      116.17658       14.23606
O         76.97667      117.06847       14.18125
C         76.23240      114.24509       13.73089
C         75.96476      113.52562       15.05246
O         76.84571      113.28169       16.05983
O         74.82911      113.10517       15.20644
H         78.84162      113.54538       14.38425
H         77.49091      115.28439       12.34920
H         76.03971      113.49586       12.93261
H         75.45086      115.02942       13.62550
N         78.91607      116.34048       15.01234
C         79.19947      117.53408       15.79844
C         78.10213      117.87562       16.78473
O         77.60903      118.99356       16.73842
H         79.61460      115.59529       15.02346
H         79.35800      118.39630       15.11363
H         80.14427      117.37607       16.36236
N         77.66047      116.96244       17.69616
C         76.60553      117.25262       18.67199
C         77.02910      116.97081       20.11453
O         76.20182      117.14088       21.00107
C         75.30160      116.51419       18.29198
C         75.35887      115.01229       18.27912
O         76.49337      114.34847       18.55685
O         74.35217      114.38145       18.00081
H         78.06662      116.01633       17.66568
H         76.33802      118.33168       18.63906
H         74.99421      116.85328       17.27845
H         74.50382      116.82085       19.00382
N         78.29585      116.58182       20.44436
C         78.72765      116.35555       21.81837
C         78.16124      115.10267       22.46919
O         78.49832      114.86201       23.61909
H         79.01284      116.50732       19.71017
H         78.48287      117.25020       22.43096
H         79.83320      116.23705       21.82553
N         77.34122      114.23952       21.80394
C         76.84378      112.98546       22.36363
C         77.36342      111.81608       21.54210
O         78.07594      112.03171       20.57123
C         75.29974      112.98315       22.36744
C         74.71369      114.07587       23.26949
C         73.21092      113.95802       23.33399
N         72.41401      114.97063       22.92254
O         72.70614      112.93388       23.77140
H         77.07367      114.44962       20.83972
H         77.20180      112.84011       23.40623
H         74.93947      112.00628       22.75221
H         74.91718      113.10710       21.32927
H         75.01186      115.07431       22.88387
H         75.11467      113.96374       24.30013
H         72.81480      115.84438       22.55302
H         71.38831      114.87904       22.97448
N         77.03254      110.53576       21.88282
C         77.45841      109.36572       21.12649
C         76.23507      108.69819       20.51691
O         75.28659      108.40342       21.23049
C         78.32436      108.41554       22.00541
C         77.56383      107.76251       23.17064
C         78.98222      107.32627       21.14284
H         76.43435      110.38111       22.70612
H         78.12503      109.68177       20.30044
H         79.15035      109.02453       22.43633
H         78.26316      107.14578       23.77494
H         77.12634      108.52721       23.84239
H         76.75949      107.09362       22.80049
H         78.22008      106.67494       20.66642
H         79.60483      107.79387       20.35148
H         79.65298      106.69462       21.76262
N         76.20900      108.41411       19.18564
C         75.09337      107.76257       18.50991
C         75.42011      106.28958       18.32966
O         76.50104      105.86282       18.70618
C         74.86057      108.50158       17.16338
C         73.73901      107.97909       16.30208
N         72.45845      108.00732       16.73580
O         73.98901      107.54483       15.18696
H         77.05571      108.59877       18.63072
H         74.17601      107.81643       19.13545
H         75.80587      108.45960       16.57529
H         74.63346      109.56542       17.37464
H         72.22522      108.38147       17.66629
H         71.69773      107.65824       16.13411
N         74.49685      105.43232       17.81653
C         74.75207      104.01068       17.59537
C         75.66768      103.74339       16.39731
O         75.99215      102.58560       16.17725
C         73.41219      103.24382       17.52058
C         72.47602      103.74372       16.44626
C         72.73947      103.51674       15.08696
C         71.31758      104.45297       16.81162
C         71.86130      103.99615       14.11041
C         70.44796      104.93941       15.83529
C         70.71432      104.71326       14.48254
O         69.86246      105.18740       13.55221
H         73.55586      105.80051       17.63404
H         75.26371      103.60326       18.49687
H         72.92955      103.39011       18.51310
H         73.57584      102.15032       17.40870
H         73.61635      102.96304       14.78008
H         71.09456      104.64581       17.85426
H         72.07456      103.81048       13.06572
H         69.56757      105.49489       16.13320
H         70.00787      105.05111       12.60554
N         76.17195      104.75169       15.62111
C         77.17301      104.54312       14.57417
C         78.54931      104.99610       15.05920
O         79.50789      104.88104       14.30655
C         76.77657      105.31554       13.29829
C         75.44093      104.83817       12.71574
C         75.08709      105.61129       11.47723
O         73.95159      106.33423       11.43535
O         75.81948      105.58193       10.50062
H         75.92492      105.72788       15.83066
H         77.27023      103.46351       14.32693
H         77.56781      105.17457       12.52836
H         76.70897      106.40191       13.53274
H         74.63752      104.98052       13.46763
H         75.50586      103.75830       12.46110
N         78.72268      105.49436       16.31664
C         79.98141      105.94778       16.88141
C         80.35458      105.15582       18.13312
O         81.43566      105.38767       18.65703
C         79.80702      107.41022       17.32062
C         79.34215      108.35267       16.20364
C         78.98710      109.70519       16.75885
O         79.16256      109.99514       18.05871
O         78.48265      110.54117       16.03769
H         77.91182      105.59166       16.92435
H         80.80097      105.85200       16.13567
H         80.74464      107.78869       17.77419
H         79.01995      107.41482       18.10535
H         78.42193      107.94475       15.73449
H         80.12840      108.44619       15.42476
N         79.50175      104.26077       18.71608
C         79.82419      103.59552       19.95921
H         80.01294      104.34981       20.75351
H         78.96994      102.96177       20.28110
H         80.72168      102.95733       19.82964
H         78.57832      104.06124       18.31063
Ca        79.05242      113.37536       16.64055
O         80.27257      114.20182       19.61188
H         80.92079      114.90331       19.35211
H         80.52328      113.96867       20.54048
O         76.27530      111.43325       18.32828
H         76.27528      111.17765       17.37281
H         75.36801      111.79517       18.48700
O         80.88813      111.34709       19.73237
H         81.25553      111.37079       18.81438
H         81.67343      111.48940       20.31563

Ca 1.0



