%chk=holoCaM-CaMKII.loop4.water1.frame328.chk
%nprocshared=20
%mem=10GB
%nosave
#b3lyp/svp scf=(tight,noincore,xqc) Test 
#IOP(5/87=12) Density=Current Pop=(MK,readradii) iop(6/33=2) iop(6/42=6)

holoCaM-CaMKII.loop4.water1.frame328 

   -3  1 
C         47.95678       36.93854       73.39063
C         49.00041       36.79139       74.46029
O         50.17552       36.97515       74.18935
H         47.23549       37.73226       73.68053
H         48.41516       37.20778       72.41623
H         47.40661       35.98010       73.27547
N         48.61732       36.46378       75.72069
C         49.52741       36.29086       76.85066
C         50.49222       35.12285       76.63308
O         50.03985       34.03060       76.32074
C         48.67990       36.07924       78.11674
C         49.51338       35.83578       79.32870
O         49.34947       34.68995       80.00656
O         50.33513       36.65629       79.70061
H         47.60363       36.34874       75.88429
H         50.10337       37.22557       77.00192
H         48.00450       35.20787       77.97366
H         48.05320       36.98228       78.29067
N         51.84027       35.28926       76.82398
C         52.84769       34.24607       76.59912
C         53.55075       33.82254       77.90108
O         54.30710       32.86365       77.84600
C         53.86710       34.75336       75.51377
C         53.11206       35.07275       74.19638
C         55.01428       33.75419       75.23755
C         53.97699       35.71841       73.10996
H         52.17782       36.21079       77.13071
H         52.35294       33.32672       76.21456
H         54.32838       35.69397       75.89037
H         52.30969       35.79903       74.41543
H         52.64556       34.14790       73.79158
H         54.61247       32.77838       74.89119
H         55.72240       34.14433       74.48307
H         55.65172       33.60407       76.12844
H         54.44069       36.65243       73.49068
H         54.76837       35.03370       72.74729
H         53.33915       35.97047       72.23713
N         53.32322       34.41015       79.11441
C         53.99509       33.95511       80.33925
C         53.04960       33.17275       81.23534
O         53.47318       32.73888       82.29850
C         54.52750       35.15781       81.14257
C         55.44792       36.04556       80.36428
O         56.61173       35.56757       79.88893
O         55.15737       37.21775       80.18699
H         52.62720       35.16545       79.19611
H         54.84773       33.28326       80.09941
H         55.06225       34.80339       82.05067
H         53.66522       35.75200       81.48014
N         51.74636       32.97923       80.89581
C         50.77253       32.37881       81.78469
C         50.63873       33.18957       83.05456
O         50.63618       32.61197       84.13168
H         51.39611       33.31344       79.98885
H         51.02877       31.31981       82.00459
H         49.78715       32.38951       81.27061
N         50.54740       34.54950       82.99089
C         50.34946       35.41692       84.14675
C         49.09155       36.27570       83.97679
O         48.82182       37.09932       84.83875
C         51.63414       36.23171       84.42612
C         51.94421       37.30642       83.43126
O         52.24309       38.41957       83.83120
O         51.88521       37.08600       82.11001
H         50.63527       34.99665       82.06960
H         50.20262       34.79960       85.05898
H         52.49008       35.52738       84.48406
H         51.54392       36.72093       85.42266
N         48.23393       36.08162       82.92675
C         46.95498       36.75697       82.78718
C         47.01542       38.20040       82.33857
O         45.93921       38.77511       82.21998
H         48.41486       35.33454       82.24618
H         46.39466       36.66970       83.74256
H         46.36405       36.22391       82.00916
N         48.17531       38.85951       82.04025
C         48.18933       40.24379       81.55618
C         48.79053       40.34109       80.17179
O         49.33749       39.36251       79.67381
C         48.82934       41.19139       82.61157
C         50.27790       40.89702       83.05942
C         51.43096       41.54474       82.25704
N         51.47404       42.99090       82.43447
O         51.43231       41.22015       80.89828
H         49.07305       38.36171       82.13872
H         47.14288       40.60287       81.43789
H         48.19880       41.03849       83.51579
H         48.72946       42.26153       82.33279
H         50.41459       39.81001       83.15890
H         50.39341       41.29574       84.09084
H         51.60516       43.18768       83.45418
H         52.33889       43.34192       81.96418
N         48.64726       41.47887       79.44636
C         49.19854       41.67333       78.11136
C         49.92235       43.00400       78.08131
O         49.31334       44.02390       78.39119
C         48.08561       41.55625       77.03233
C         48.61214       41.91573       75.63015
C         47.54791       40.11073       76.98823
H         48.07918       42.24409       79.84989
H         49.93025       40.87679       77.87004
H         47.25216       42.25097       77.27557
H         48.94975       42.97225       75.59490
H         49.46046       41.25832       75.34315
H         47.80463       41.80113       74.87536
H         46.75442       40.00880       76.21824
H         48.36658       39.39946       76.73319
H         47.11566       39.81037       77.96413
N         51.22180       43.07059       77.68270
C         51.99149       44.30506       77.60427
C         52.24503       44.65975       76.15087
O         51.74546       43.95720       75.28510
C         53.29701       44.21281       78.43908
C         54.38056       43.31258       77.88177
N         54.26527       41.96568       77.87182
O         55.41129       43.82202       77.46686
H         51.66480       42.20191       77.35260
H         51.40557       45.14589       78.03909
H         53.06569       43.91911       79.48532
H         53.71918       45.23903       78.48934
H         53.44444       41.49041       78.26601
H         55.03300       41.38671       77.50120
N         52.97891       45.74118       75.78830
C         53.20197       46.13255       74.39722
C         53.87579       45.02264       73.59386
O         53.38183       44.68463       72.52973
C         54.02474       47.43749       74.35125
C         54.19318       48.00000       72.95700
C         53.07027       48.32927       72.17506
C         55.47759       48.22939       72.43552
C         53.23100       48.87136       70.89682
C         55.63549       48.77988       71.15939
C         54.51132       49.10259       70.38564
O         54.64830       49.63889       69.15611
H         53.38561       46.32724       76.53662
H         52.21191       46.34633       73.93684
H         55.01515       47.26318       74.82744
H         53.49320       48.20678       74.95333
H         52.06801       48.17225       72.55144
H         56.35843       47.99404       73.01953
H         52.35784       49.11877       70.30582
H         56.63164       48.95944       70.77525
H         55.51555       49.82694       68.76987
N         54.98904       44.39410       74.06891
C         55.70013       43.33052       73.35292
C         54.76644       42.20365       72.93393
O         54.70767       41.89654       71.75036
C         56.84710       42.79526       74.24308
C         57.69462       41.71400       73.55471
C         58.82326       41.27461       74.44403
O         59.67265       42.07546       74.80194
O         58.90985       39.99119       74.84291
H         55.33898       44.68339       74.99317
H         56.15226       43.76596       72.43399
H         56.42838       42.37931       75.18662
H         57.50746       43.65129       74.50484
H         58.11836       42.11038       72.60745
H         57.05896       40.83320       73.31856
N         53.99914       41.55437       73.84879
C         53.07436       40.46973       73.51176
C         52.06803       40.93180       72.46755
O         51.97408       40.30472       71.42187
C         52.38130       39.96206       74.79650
C         53.40185       39.23750       75.70086
C         52.86050       38.85373       77.04665
O         53.58379       38.27302       77.83943
O         51.60331       39.16124       77.40702
H         54.06440       41.87053       74.82901
H         53.63673       39.61337       73.07410
H         51.57330       39.24186       74.54456
H         51.92442       40.82707       75.32507
H         54.28417       39.88043       75.88018
H         53.74767       38.31935       75.17961
N         51.32668       42.05322       72.66332
C         50.40956       42.60664       71.68866
H         49.40185       42.70167       72.14296
H         50.76238       43.61867       71.39317
H         50.33465       41.98328       70.77398
H         51.44511       42.56728       73.53477
Ca        51.69089       38.98103       80.96123
O         54.51991       40.23330       80.55053
H         55.45786       39.95187       80.40581
H         54.58738       41.16871       80.86766

Ca 1.0



