%chk=holoCaM.loop4.water3.frame206.chk
%nprocshared=20
%mem=10GB
%nosave
#b3lyp/svp scf=(tight,noincore,xqc) Test 
#IOP(5/87=12) Density=Current Pop=(MK,readradii) iop(6/33=2) iop(6/42=6)

holoCaM.loop4.water3.frame206 

   -3  1 
C         22.95342       63.73775       50.86013
C         24.02017       62.87349       51.45725
O         23.75979       61.69482       51.65168
H         22.06732       63.75079       51.52905
H         23.30958       64.77578       50.70404
H         22.65486       63.31194       49.87766
N         25.24693       63.38010       51.78687
C         26.30724       62.53136       52.31824
C         27.49659       63.35259       52.82287
O         28.03668       64.15486       52.07421
C         26.78362       61.53510       51.23482
C         27.64184       60.44733       51.80727
O         28.14508       59.61774       51.06789
O         27.79973       60.33427       53.13777
H         25.41858       64.38970       51.66511
H         25.87941       61.96032       53.16669
H         27.33658       62.08879       50.44610
H         25.92897       61.01972       50.75271
N         27.97704       63.15334       54.08549
C         29.09876       63.87526       54.68422
C         30.26955       62.92823       54.93648
O         31.37170       63.24806       54.51308
C         28.63377       64.54308       56.01714
C         27.54719       65.61224       55.73337
C         29.82064       65.18179       56.77544
C         26.84542       66.10960       57.00025
H         27.52139       62.43787       54.66671
H         29.46484       64.68275       54.00964
H         28.20096       63.74523       56.66214
H         26.76106       65.18779       55.08134
H         27.99283       66.47126       55.18575
H         30.28998       65.98161       56.16361
H         29.50171       65.61154       57.74489
H         30.59346       64.42487       57.02249
H         26.36392       65.25771       57.52672
H         27.54247       66.61930       57.69352
H         26.06011       66.84073       56.72016
N         30.11954       61.77244       55.64736
C         31.24639       60.94388       56.08650
C         31.42229       59.65163       55.28512
O         32.33805       58.90262       55.59712
C         31.14516       60.71547       57.61411
C         29.84634       60.09854       58.04777
O         29.52355       58.99867       57.64354
O         29.03045       60.76322       58.88866
H         29.16998       61.48731       55.92806
H         32.20480       61.48360       55.92482
H         31.23614       61.70030       58.12141
H         31.98620       60.07748       57.96152
N         30.66690       59.36683       54.18573
C         30.92864       58.24196       53.28804
C         30.70625       56.85491       53.87133
O         30.97731       55.88821       53.17378
H         29.94491       60.03388       53.90685
H         31.98013       58.31749       52.93684
H         30.27104       58.33242       52.39695
N         30.22145       56.66909       55.12658
C         30.04655       55.35897       55.76226
C         29.02537       54.43053       55.11064
O         28.93389       53.30008       55.57153
C         29.62979       55.56096       57.23315
C         28.36913       56.37645       57.37062
O         27.70388       56.82917       56.27991
O         27.99922       56.69660       58.48522
H         30.01291       57.50692       55.68029
H         31.03026       54.83994       55.74776
H         30.44361       56.11744       57.74711
H         29.50754       54.58554       57.75218
N         28.21001       54.80955       54.08517
C         27.21851       53.91548       53.50851
C         25.80951       54.45403       53.61815
O         25.13719       54.51267       52.59810
H         28.29194       55.75058       53.69589
H         27.22366       52.92597       54.01197
H         27.46980       53.73653       52.44030
N         25.26884       54.80630       54.82487
C         23.84489       55.11215       54.99315
C         23.57987       56.54466       55.42227
O         24.50205       57.28603       55.72351
C         23.24132       54.13722       56.02509
C         23.33342       52.68053       55.54923
C         22.79189       51.73117       56.58619
N         23.57436       50.75399       57.10235
O         21.63270       51.83786       56.95839
H         25.86865       54.78903       55.66400
H         23.31036       54.98740       54.02593
H         22.17123       54.38060       56.20226
H         23.78582       54.25318       56.98988
H         24.39185       52.42335       55.33092
H         22.74701       52.56530       54.61262
H         24.55213       50.64036       56.79694
H         23.20027       50.10177       57.80721
N         22.29367       57.00596       55.39845
C         21.90720       58.38129       55.69390
C         21.83993       58.59827       57.20151
O         21.11932       57.88183       57.88051
C         20.53578       58.72798       55.02520
C         20.12548       60.18743       55.30023
C         20.58736       58.53409       53.49638
H         21.56107       56.36030       55.06649
H         22.63846       59.07223       55.22690
H         19.74715       58.05944       55.43476
H         20.00188       60.36755       56.38523
H         20.88633       60.89072       54.89873
H         19.15200       60.41608       54.81599
H         20.83266       57.48878       53.22193
H         19.59960       58.77186       53.04600
H         21.34206       59.20676       53.03870
N         22.49935       59.64875       57.76300
C         22.37784       60.06854       59.16235
C         21.54336       61.33623       59.20152
O         21.16155       61.80773       58.14880
C         23.80540       60.25069       59.71590
C         23.96022       60.89293       61.06922
N         24.68543       62.03128       61.20321
O         23.46069       60.37099       62.05367
H         23.04225       60.26085       57.13829
H         21.82795       59.31330       59.76461
H         24.39074       60.84965       58.98285
H         24.23322       59.24040       59.78878
H         25.13110       62.47624       60.38625
H         24.81044       62.47246       62.12572
N         21.13482       61.89935       60.37547
C         20.26802       63.07448       60.40261
C         20.94169       64.30861       59.81256
O         20.28197       65.04980       59.09596
C         19.68461       63.38557       61.79751
C         20.64684       64.02268       62.77256
C         20.51925       65.39529       63.04927
C         21.65451       63.28707       63.41866
C         21.38663       66.02358       63.94073
C         22.51810       63.91790       64.32026
C         22.38983       65.28660       64.58148
O         23.23127       65.88268       65.44889
H         21.37737       61.43562       61.25504
H         19.37227       62.82806       59.78660
H         19.20089       62.49054       62.24596
H         18.86202       64.11114       61.60735
H         19.75182       65.98648       62.56424
H         21.77000       62.22833       63.24838
H         21.27472       67.08318       64.13140
H         23.28683       63.34105       64.81819
H         23.17086       66.82716       65.65248
N         22.26330       64.57813       60.04953
C         22.96754       65.74058       59.49054
C         23.02826       65.72605       57.95849
O         23.49362       66.69553       57.37868
C         24.42239       65.81223       60.01121
C         24.52416       65.96054       61.53542
C         25.96509       66.02646       61.95420
O         26.79071       64.99247       61.69951
O         26.39457       67.01326       62.52971
H         22.78225       63.92307       60.65134
H         22.42707       66.65880       59.81181
H         24.92643       66.69447       59.55559
H         24.96535       64.89680       59.68658
H         24.05896       65.09800       62.05157
H         23.99531       66.88681       61.85004
N         22.57254       64.66280       57.24477
C         22.59260       64.53686       55.79803
C         21.16751       64.67367       55.28134
O         20.94475       65.44862       54.36203
C         23.18013       63.15871       55.42014
C         24.57788       62.91329       56.02463
C         25.09389       61.52516       55.75481
O         26.16719       61.06937       56.42561
O         24.49374       60.76617       55.01474
H         22.19552       63.86332       57.74712
H         23.22026       65.32723       55.32871
H         23.22078       63.06162       54.31380
H         22.50518       62.37047       55.81578
H         24.51104       63.01884       57.12781
H         25.30232       63.65352       55.64482
N         20.14154       63.99333       55.87206
C         18.75192       64.10289       55.48751
H         18.17385       64.52965       56.33626
H         18.60834       64.74760       54.59793
H         18.35514       63.08926       55.26944
H         20.33047       63.38783       56.67322
Ca        26.80537       58.91057       56.15583
O         26.16493       58.63093       58.67292
H         26.03325       57.94227       59.37002
H         26.76875       59.30156       59.07719
O         26.85357       57.62970       53.15848
H         27.81284       57.80248       52.99001
H         26.57367       57.05218       52.40501
O         24.36798       58.76857       52.97092
H         23.64935       59.44563       52.98197
H         24.57773       58.64890       52.01170

Ca 1.0



