%chk=holoCaM.loop1.water2.frame142.chk
%nprocshared=20
%mem=10GB
%nosave
#b3lyp/svp scf=(tight,noincore,xqc) Test 
#IOP(5/87=12) Density=Current Pop=(MK,readradii) iop(6/33=2) iop(6/42=6)

holoCaM.loop1.water2.frame142 

   0  1 
C          2.16337       79.31453        2.78541
C          2.21145       77.82333        2.66165
O          1.46609       77.27921        1.86226
H          1.14416       79.62458        3.09502
H          2.89278       79.68154        3.53727
H          2.40546       79.77227        1.80332
N          3.09240       77.09538        3.40189
C          3.20669       75.64807        3.29489
C          1.96957       74.97670        3.89449
O          1.88128       74.84147        5.10744
C          4.49211       75.19993        4.01417
C          4.84423       73.76289        3.82429
O          4.22129       73.03631        3.06626
O          5.89402       73.28108        4.49965
H          3.74192       77.60230        4.02339
H          3.31874       75.39445        2.21528
H          4.39064       75.40705        5.10198
H          5.35610       75.78869        3.63478
N          0.93243       74.61189        3.09350
C         -0.32866       74.05912        3.59308
C         -0.20683       72.62032        4.10781
O         -1.19364       72.12642        4.63641
C         -1.39417       74.10518        2.46520
C         -1.74342       75.55299        2.05446
C         -2.58430       75.64905        0.77097
C         -3.94833       74.95311        0.84760
N         -4.66926       75.10739       -0.41714
H          1.01767       74.82509        2.09196
H         -0.68905       74.69679        4.43121
H         -2.33055       73.61253        2.80402
H         -1.00121       73.54303        1.58957
H         -0.81687       76.11988        1.84294
H         -2.26258       76.05994        2.89709
H         -2.00755       75.21359       -0.06940
H         -2.74621       76.72691        0.54869
H         -4.54737       75.39610        1.67317
H         -3.81101       73.86893        1.04778
H         -4.83072       76.12073       -0.62044
H         -4.12031       74.67817       -1.19812
H         -5.59308       74.62319       -0.34983
N          0.92182       71.86559        3.94438
C          0.98299       70.43842        4.29246
C          2.31406       69.98608        4.93044
O          2.42055       68.81278        5.26021
C          0.58394       69.57114        3.07289
C          1.42713       69.76490        1.84914
O          2.33924       70.74585        1.79487
O          1.27169       69.03340        0.88495
H          1.70232       72.28118        3.42481
H          0.20975       70.21117        5.05953
H         -0.46946       69.78566        2.78919
H          0.63611       68.50250        3.37604
N          3.32874       70.85173        5.21638
C          4.50569       70.50113        6.00952
C          5.54537       69.58138        5.37509
O          5.86861       68.56882        5.97891
H          3.20936       71.84610        4.99420
H          4.16521       70.07261        6.97832
H          5.04472       71.44092        6.25354
N          6.19392       69.92912        4.22538
C          7.39678       69.24828        3.70761
C          8.57629       70.22482        3.53434
O          9.61055       69.81726        3.02219
C          7.10624       68.55066        2.36011
C          6.45128       69.45915        1.37136
O          5.29004       69.08442        0.82323
O          6.89808       70.56869        1.14070
H          5.85158       70.75792        3.71722
H          7.74129       68.45216        4.40308
H          6.42823       67.68704        2.53314
H          8.05047       68.14778        1.93490
N          8.49486       71.52368        3.92997
C          9.51996       72.52991        3.71735
C          9.72720       72.85514        2.25145
O         10.86775       72.94235        1.83608
H          7.66332       71.83511        4.43175
H         10.47439       72.23542        4.20647
H          9.17435       73.47087        4.19929
N          8.65719       73.13478        1.44784
C          8.73146       73.60555        0.05091
C          7.34686       74.06340       -0.44493
O          6.34142       73.83459        0.20899
C          9.30371       72.56844       -0.97772
C         10.81434       72.29541       -0.94957
O          8.59052       71.36391       -0.93604
H          7.73579       73.07942        1.90291
H          9.36284       74.52068        0.03925
H          9.16191       73.00120       -1.99044
H          8.93864       70.84191       -0.16736
H         11.12441       71.70139       -0.07261
H         11.08515       71.68302       -1.83661
H         11.37947       73.25008       -1.00170
N          7.25607       74.77306       -1.61074
C          6.01705       75.33249       -2.14638
C          5.79493       74.77985       -3.55270
O          6.69482       74.86663       -4.37485
C          6.12536       76.88976       -2.16445
C          6.48071       77.48678       -0.77194
C          4.84820       77.55019       -2.71972
C          5.43876       77.26394        0.33237
H          8.12220       74.98120       -2.12789
H          5.14652       75.06899       -1.50999
H          6.96193       77.16548       -2.84468
H          6.63071       78.58305       -0.88250
H          7.44840       77.06255       -0.42887
H          4.96739       78.65441       -2.74554
H          4.64631       77.21292       -3.75556
H          3.96465       77.30588       -2.09727
H          4.47239       77.74523        0.07997
H          5.27155       76.18647        0.52208
H          5.80526       77.72163        1.27579
N          4.58627       74.25551       -3.90952
C          4.27186       73.76816       -5.25402
C          3.42729       74.79116       -5.98816
O          3.11704       75.83360       -5.43149
C          3.49761       72.41531       -5.18589
C          4.32478       71.27139       -4.60810
O          2.28200       72.55519       -4.48673
H          3.82452       74.29172       -3.22323
H          5.19757       73.63205       -5.85364
H          3.24424       72.08842       -6.21579
H          2.46088       72.48425       -3.51436
H          3.72793       70.33371       -4.63833
H          5.24917       71.12233       -5.20330
H          4.57996       71.49880       -3.55945
N          3.00620       74.54616       -7.26280
C          2.03973       75.40513       -7.94098
C          0.68914       75.35257       -7.22794
O         -0.12057       76.24661       -7.43110
C          1.84795       74.97663       -9.41712
C          3.14250       75.13981      -10.22517
O          1.41747       73.63883       -9.46465
H          3.34389       73.69830       -7.74014
H          2.42228       76.45052       -7.91748
H          1.07149       75.63502       -9.87180
H          1.10881       73.46313      -10.39141
H          2.96607       74.84440      -11.28116
H          3.47033       76.20050      -10.20944
H          3.95767       74.50499       -9.82039
N          0.35647       74.29218       -6.43116
C         -0.92927       74.16476       -5.74956
C         -0.97286       75.02135       -4.48630
O         -2.03507       75.16678       -3.89864
C         -1.21730       72.68663       -5.36868
C         -0.92901       71.65831       -6.48800
C         -1.65408       71.93455       -7.81409
C         -1.11773       71.05945       -8.96299
N         -1.28527       69.62714       -8.72013
H          1.02686       73.52347       -6.35236
H         -1.72101       74.49422       -6.45731
H         -2.27547       72.60386       -5.03670
H         -0.56859       72.39815       -4.51158
H         -1.19751       70.64887       -6.11144
H          0.16046       71.63415       -6.68604
H         -1.46636       72.98065       -8.13233
H         -2.74869       71.79957       -7.68147
H         -0.03709       71.27937       -9.11800
H         -1.65431       71.33808       -9.89637
H         -0.94123       69.10434       -9.55797
H         -0.71656       69.32264       -7.89824
H         -2.29421       69.40278       -8.56699
N          0.17001       75.57887       -3.99359
C          0.27434       76.39944       -2.79860
C          0.76917       77.79920       -3.16448
O          0.94824       78.60399       -2.26086
C          1.27387       75.72669       -1.82465
C          0.85969       74.29028       -1.45973
C          1.88749       73.60087       -0.60836
O          3.03047       73.45632       -1.00782
O          1.53739       73.08167        0.57834
H          1.05245       75.39547       -4.47340
H         -0.71220       76.50073       -2.29604
H          1.37346       76.33053       -0.89580
H          2.26561       75.69206       -2.32016
H          0.73796       73.68704       -2.38102
H         -0.11111       74.30642       -0.92708
N          1.00749       78.16516       -4.46326
C          1.49308       79.46933       -4.86237
H          2.45097       79.34757       -5.41201
H          0.75339       79.94106       -5.54340
H          1.66428       80.14354       -3.99900
H          0.84237       77.50585       -5.23406
Ca         3.91425       70.71653        0.25021
O          6.01040       70.60410       -1.71025
H          5.76254       69.77574       -2.19198
H          6.49603       71.15076       -2.37729
O          2.56376       69.64016       -2.24397
H          1.95067       70.31823       -1.86302
H          2.71110       68.99334       -1.50896

Ca 1.0



