%chk=holoCaM.loop4.water3.frame471.chk
%nprocshared=20
%mem=10GB
%nosave
#b3lyp/svp scf=(tight,noincore,xqc) Test 
#IOP(5/87=12) Density=Current Pop=(MK,readradii) iop(6/33=2) iop(6/42=6)

holoCaM.loop4.water3.frame471 

   -3  1 
C         37.55920       55.90101       80.83351
C         38.06685       54.57014       81.29201
O         38.97228       54.05261       80.65408
H         36.75232       56.27880       81.49298
H         38.39988       56.62790       80.84500
H         37.17437       55.81351       79.79591
N         37.53757       53.94510       82.38686
C         38.06224       52.67400       82.87224
C         37.19721       52.09427       83.99219
O         36.89773       52.78726       84.95454
C         39.51122       52.84922       83.39127
C         40.22923       51.54050       83.56786
O         41.47190       51.53183       84.08308
O         39.73093       50.49492       83.18446
H         36.74143       54.38409       82.87394
H         38.06927       51.96842       82.01012
H         39.48986       53.41038       84.35009
H         40.13416       53.42490       82.68031
N         36.83087       50.78509       83.94411
C         36.02380       50.08930       84.94392
C         36.88187       49.09502       85.72678
O         36.68709       48.97616       86.92892
C         34.86015       49.33392       84.21906
C         33.96380       50.33256       83.44050
C         34.01892       48.49818       85.21177
C         32.91440       49.65562       82.55301
H         37.16122       50.23406       83.14263
H         35.57655       50.80138       85.67486
H         35.31598       48.62834       83.48844
H         34.59680       50.94159       82.76191
H         33.45851       51.02154       84.15224
H         34.64618       47.74942       85.73817
H         33.53343       49.15253       85.96627
H         33.23950       47.91045       84.68791
H         33.40891       48.98233       81.82034
H         32.17931       49.07747       83.14736
H         32.35104       50.43104       81.99273
N         37.79588       48.30310       85.09579
C         38.43865       47.13829       85.70954
C         39.93671       47.24646       85.94144
O         40.47443       46.36264       86.59590
C         38.16557       45.91048       84.80531
C         38.72747       46.03109       83.38312
O         39.42085       47.13216       82.98601
O         38.52305       45.12822       82.59065
H         37.97001       48.49006       84.10630
H         37.99685       46.96653       86.71643
H         37.06360       45.77907       84.73825
H         38.58525       44.99900       85.28425
N         40.69049       48.24039       85.40747
C         42.13251       48.30965       85.55734
C         42.80655       47.03221       85.10654
O         43.53561       46.45034       85.89744
H         40.23625       48.95742       84.84050
H         42.38768       48.50940       86.62065
H         42.52042       49.15607       84.95079
N         42.62521       46.54585       83.84505
C         43.32820       45.36906       83.34062
C         44.33532       45.78313       82.28412
O         44.83499       44.92354       81.57037
C         42.34853       44.26031       82.86342
C         41.54630       44.52571       81.61855
O         41.67746       45.66425       80.93007
O         40.78457       43.66825       81.20197
H         42.01624       47.06632       83.19655
H         43.91706       44.88607       84.14998
H         41.64707       44.02751       83.69286
H         42.94386       43.34442       82.65446
N         44.73911       47.08658       82.17161
C         45.69035       47.51949       81.17218
C         45.10358       47.48055       79.78233
O         45.87357       47.60504       78.84094
H         44.39885       47.80024       82.82982
H         46.58962       46.86868       81.23910
H         46.01320       48.56471       81.37006
N         43.75407       47.37114       79.56547
C         43.17496       47.34975       78.22668
C         41.68249       47.81658       78.20413
O         41.45034       48.82650       79.15158
C         43.22152       45.92051       77.62185
C         44.60366       45.25817       77.55472
C         44.51565       43.91672       76.87091
N         43.74641       42.92451       77.37916
O         45.14653       43.72441       75.84232
H         43.12410       47.42213       80.37320
H         43.75056       48.07610       77.60691
H         42.82741       45.94610       76.58641
H         42.54934       45.27437       78.22618
H         45.00968       45.10115       78.57572
H         45.29486       45.91302       76.98071
H         43.20859       43.06003       78.24731
H         43.68542       42.01395       76.90022
N         41.41615       48.34205       76.85085
C         40.10549       48.94212       76.55651
C         39.11573       47.87871       76.08547
O         39.45849       47.08069       75.22310
C         40.30625       50.02000       75.45176
C         38.99577       50.76499       75.14819
C         41.37474       51.04872       75.86756
H         41.72453       47.71393       76.07579
H         39.71483       49.47666       77.44891
H         40.65789       49.52730       74.51751
H         38.62041       51.28117       76.05834
H         39.16024       51.52408       74.35399
H         38.21771       50.06523       74.78441
H         41.07860       51.57025       76.80301
H         42.35752       50.55753       76.02995
H         41.51424       51.80418       75.06476
N         37.83682       47.87366       76.55384
C         36.80678       46.92564       76.13214
C         35.75462       47.63837       75.29252
O         35.84170       48.84191       75.11695
C         36.19588       46.31304       77.41562
C         35.13058       45.26864       77.21101
N         35.41213       44.10896       76.57555
O         34.00448       45.46236       77.64500
H         37.56083       48.61101       77.21555
H         37.25004       46.12663       75.49888
H         35.77631       47.14189       78.03122
H         37.00558       45.83015       77.98845
H         36.35857       43.92236       76.21513
H         34.68147       43.39327       76.45130
N         34.74241       46.94408       74.70219
C         33.66315       47.56906       73.93586
C         32.65761       48.32815       74.81698
O         31.75452       48.93334       74.26065
C         32.98310       46.50928       73.03278
C         32.40581       45.34198       73.79876
C         33.03786       44.08676       73.74083
C         31.24985       45.48930       74.57941
C         32.53769       43.00830       74.47270
C         30.74544       44.40559       75.30324
C         31.39339       43.16376       75.25929
O         30.92717       42.11673       75.96807
H         34.77268       45.91903       74.76494
H         34.11489       48.30408       73.23132
H         33.78104       46.13559       72.35214
H         32.20346       46.96337       72.38349
H         33.93303       43.94703       73.14687
H         30.73463       46.43881       74.62868
H         33.04618       42.05341       74.43325
H         29.85459       44.53418       75.90316
H         30.14484       42.18767       76.53319
N         32.77366       48.37939       76.18083
C         31.90893       49.18028       77.05388
C         32.66175       50.40339       77.57297
O         32.09879       51.15147       78.36444
C         31.43620       48.32150       78.25438
C         30.55841       47.12096       77.87162
C         29.19886       47.49580       77.33493
O         28.80733       48.78213       77.24323
O         28.41985       46.61419       77.01162
H         33.55539       47.89662       76.63924
H         31.03427       49.57489       76.49887
H         30.86730       48.94335       78.98049
H         32.33935       47.93952       78.78117
H         30.39229       46.50740       78.78350
H         31.10195       46.49572       77.13838
N         33.92209       50.68865       77.14815
C         34.72747       51.81607       77.58419
C         34.98685       52.70738       76.38178
O         34.60266       53.86656       76.41474
C         36.03654       51.27650       78.19911
C         35.74930       50.43630       79.46266
C         36.94817       49.69969       79.99391
O         36.80921       48.90640       81.07127
O         38.03222       49.76839       79.44184
H         34.36249       50.07340       76.46041
H         34.19767       52.41823       78.35685
H         36.72187       52.11192       78.46153
H         36.54020       50.64242       77.44073
H         34.98819       49.66131       79.23612
H         35.34947       51.10519       80.25543
N         35.59680       52.21349       75.26420
C         35.80355       52.97481       74.04997
H         36.88689       53.00343       73.81225
H         35.27036       52.47241       73.21377
H         35.42422       54.01398       74.12982
H         35.91619       51.23973       75.25150
Ca        40.29212       47.97816       81.00659
O         38.63584       46.18233       79.73736
H         39.19286       45.37893       79.58580
H         37.85083       45.85496       80.24349
O         42.48114       49.67510       81.90631
H         43.16224       49.83651       82.60443
H         42.71257       50.31059       81.18453
O         40.25140       51.37767       80.18341
H         39.60064       51.72719       79.52499
H         41.13242       51.60241       79.79461

Ca 1.0



