%chk=holoCaM.loop1.water2.frame258.chk
%nprocshared=20
%mem=10GB
%nosave
#b3lyp/svp scf=(tight,noincore,xqc) Test 
#IOP(5/87=12) Density=Current Pop=(MK,readradii) iop(6/33=2) iop(6/42=6)

holoCaM.loop1.water2.frame258 

   0  1 
C         47.71634       21.04569       53.25550
C         47.59910       21.57152       51.85425
O         48.53507       22.18467       51.37256
H         47.88592       21.89817       53.94815
H         46.78606       20.52897       53.57527
H         48.56486       20.33704       53.32890
N         46.45550       21.38526       51.14520
C         46.19515       21.98536       49.83649
C         46.22911       23.50180       49.98564
O         45.46432       24.03366       50.77812
C         44.83354       21.44143       49.34775
C         44.19732       22.06293       48.14195
O         44.77052       22.10569       46.93219
O         43.06107       22.49367       48.24560
H         45.71194       20.82273       51.58873
H         46.96957       21.66387       49.10743
H         44.09570       21.55388       50.17267
H         44.95633       20.35331       49.15147
N         47.12454       24.25350       49.27430
C         47.29037       25.69802       49.44258
C         46.79153       26.48544       48.23603
O         46.81261       27.70739       48.29779
C         48.78065       26.04666       49.70151
C         49.43554       25.33621       50.89839
C         48.70722       25.59655       52.22372
C         49.44016       24.95471       53.40947
N         48.70855       25.18751       54.65486
H         47.72470       23.78023       48.58715
H         46.68107       26.05220       50.30023
H         48.87235       27.14299       49.86250
H         49.37662       25.78722       48.79723
H         50.48347       25.70119       50.97877
H         49.48445       24.25177       50.69652
H         47.68350       25.17126       52.17147
H         48.63800       26.69250       52.39463
H         50.46079       25.38992       53.49489
H         49.54156       23.85947       53.24656
H         49.23539       24.75993       55.45015
H         48.60795       26.21425       54.82775
H         47.76160       24.74588       54.60105
N         46.31996       25.86743       47.11579
C         45.76566       26.57292       45.96338
C         44.32718       26.14316       45.67010
O         43.77185       26.63331       44.69578
C         46.69596       26.48527       44.71977
C         47.19017       25.13457       44.26728
O         47.02211       24.03593       45.01446
O         47.84122       25.05418       43.23907
H         46.32815       24.84287       47.08049
H         45.69590       27.66507       46.16913
H         47.60897       27.08449       44.92793
H         46.17606       26.98010       43.86993
N         43.61618       25.32505       46.50611
C         42.19922       25.05495       46.30086
C         41.89565       24.17746       45.10482
O         40.74746       24.16362       44.68492
H         44.04510       24.96481       47.36961
H         41.67267       26.02821       46.19147
H         41.76574       24.55989       47.19589
N         42.83177       23.34626       44.56457
C         42.55852       22.45892       43.43352
C         42.30218       21.01523       43.86546
O         42.08394       20.17892       42.99959
C         43.69221       22.58211       42.39075
C         45.03464       22.08217       42.85536
O         45.18567       21.51107       44.06260
O         46.00027       22.17930       42.11673
H         43.76077       23.30706       45.00264
H         41.62561       22.78029       42.92131
H         43.79168       23.65355       42.11211
H         43.41758       22.01177       41.47743
N         42.24991       20.65697       45.18127
C         41.93029       19.31464       45.63759
C         42.99011       18.31827       45.24845
O         42.66603       17.32245       44.62654
H         42.39485       21.36730       45.90985
H         40.93334       19.00936       45.25031
H         41.87548       19.31903       46.74830
N         44.27718       18.52420       45.63673
C         45.40475       17.61168       45.40122
C         46.65895       18.11435       46.12874
O         46.70924       19.24876       46.58133
C         45.73489       17.40370       43.88050
C         45.14312       16.13071       43.26259
O         45.33258       18.50828       43.11653
H         44.44102       19.38548       46.17760
H         45.17257       16.63480       45.88028
H         46.83063       17.24025       43.75037
H         45.91849       19.25752       43.37834
H         44.04340       16.10865       43.24553
H         45.48037       16.04718       42.20612
H         45.51253       15.23751       43.80970
N         47.70604       17.26431       46.31849
C         48.93448       17.61634       47.02464
C         50.11538       17.41328       46.09616
O         50.27592       16.33849       45.53429
C         49.04035       16.80831       48.36057
C         48.06852       17.45537       49.39238
C         50.48221       16.79174       48.91593
C         48.01480       16.77183       50.75949
H         47.61884       16.29664       45.96932
H         48.94266       18.68789       47.31378
H         48.76133       15.74777       48.17148
H         47.03868       17.45713       48.97701
H         48.37039       18.51459       49.56317
H         50.84565       17.81792       49.12471
H         50.55023       16.18348       49.83972
H         51.17056       16.30153       48.19612
H         47.68275       15.71929       50.65397
H         48.99583       16.80795       51.27532
H         47.29239       17.31493       51.40636
N         51.03097       18.41612       45.96565
C         52.24916       18.31695       45.17540
C         53.43111       18.04503       46.08848
O         53.26099       17.96386       47.29635
C         52.47476       19.62091       44.35946
C         51.32423       19.91236       43.39311
O         52.71087       20.72110       45.20923
H         50.90311       19.26461       46.53136
H         52.18074       17.45651       44.47375
H         53.37887       19.50089       43.72774
H         51.84115       21.05743       45.54873
H         51.55116       20.82910       42.80883
H         51.18559       19.06667       42.68793
H         50.38724       20.07408       43.96195
N         54.67238       17.87144       45.55914
C         55.86311       17.60657       46.36190
C         56.12734       18.73542       47.34146
O         56.43107       18.44958       48.49094
C         57.10348       17.36639       45.47054
C         56.93949       16.10260       44.61282
O         57.33777       18.48193       44.65022
H         54.77064       17.92967       44.53554
H         55.71225       16.67169       46.94928
H         57.97434       17.20586       46.14961
H         58.27578       18.41198       44.33297
H         57.86314       15.92389       44.02423
H         56.76609       15.21912       45.26435
H         56.08944       16.19355       43.90595
N         56.01791       20.04135       46.96421
C         56.23011       21.15061       47.88960
C         55.23286       21.08480       49.03824
O         55.64826       21.07541       50.18855
C         56.11730       22.50151       47.14671
C         56.59553       23.67357       48.02137
C         56.54439       25.00232       47.25678
C         57.16552       26.13651       48.08550
N         57.10625       27.40767       47.36451
H         55.76454       20.25092       45.98612
H         57.26891       21.07791       48.28370
H         55.07506       22.66991       46.79557
H         56.78053       22.46347       46.25452
H         57.64818       23.47403       48.32115
H         55.97388       23.75518       48.93962
H         55.48697       25.24468       47.01235
H         57.11803       24.90711       46.30877
H         58.23007       25.89001       48.30032
H         56.62777       26.23820       49.05395
H         57.57155       28.14837       47.93763
H         57.60439       27.32837       46.44809
H         56.10976       27.68050       47.20274
N         53.89290       21.01513       48.78677
C         52.87326       20.96187       49.83889
C         52.98722       19.71498       50.71152
O         52.32680       19.66431       51.74043
C         51.46069       20.98672       49.21866
C         51.18042       22.28197       48.43595
C         49.88103       22.23985       47.68670
O         49.16189       21.25379       47.71433
O         49.52234       23.30214       46.94384
H         53.59686       21.00373       47.80007
H         53.00217       21.85496       50.49005
H         50.68397       20.88454       50.00929
H         51.37915       20.11148       48.54343
H         51.96845       22.46677       47.68083
H         51.16717       23.13805       49.14296
N         53.77488       18.66140       50.36365
C         53.91638       17.48281       51.18684
H         54.36201       17.76021       52.16520
H         52.92791       17.00269       51.34227
H         54.59132       16.75575       50.68493
H         54.28351       18.67723       49.47767
Ca        46.84780       22.11885       46.15522
O         48.18217       19.98824       42.84672
H         48.15100       19.15670       42.31022
H         48.23692       20.71562       42.17891
O         49.68514       22.78661       43.96999
H         50.16138       22.84251       43.10462
H         49.82239       23.67707       44.37907

Ca 1.0



