%chk=holoCaM-CaMKII.loop4.water2.frame262.chk
%nprocshared=20
%mem=10GB
%nosave
#b3lyp/svp scf=(tight,noincore,xqc) Test 
#IOP(5/87=12) Density=Current Pop=(MK,readradii) iop(6/33=2) iop(6/42=6)

holoCaM-CaMKII.loop4.water2.frame262 

   -3  1 
C         78.01733       81.38736       49.47732
C         77.27092       80.80411       50.63985
O         77.86285       80.65045       51.69686
H         78.88600       80.73687       49.23967
H         77.37476       81.45542       48.57464
H         78.38237       82.40256       49.73602
N         75.96328       80.44148       50.51543
C         75.20814       79.81522       51.59493
C         75.85872       78.49232       51.99702
O         75.84856       77.54640       51.22171
C         73.73591       79.60098       51.15447
C         73.03700       78.57055       51.99512
O         72.69828       77.52195       51.47518
O         72.86848       78.73124       53.31680
H         75.49579       80.60896       49.61109
H         75.20507       80.49559       52.47689
H         73.73685       79.20221       50.11643
H         73.18862       80.56990       51.14447
N         76.43316       78.37535       53.22627
C         77.04380       77.15724       53.73727
C         75.97243       76.25858       54.36735
O         75.78769       75.14644       53.89446
C         78.18949       77.50324       54.75235
C         79.26147       78.40598       54.07422
C         78.82830       76.21372       55.30444
C         80.39132       78.86027       55.00261
H         76.50924       79.22423       53.79134
H         77.52801       76.61780       52.89162
H         77.75936       78.06716       55.60967
H         78.78063       79.33408       53.70748
H         79.70426       77.87936       53.20129
H         79.59717       76.44152       56.06931
H         78.06958       75.58280       55.81136
H         79.29363       75.62787       54.48374
H         81.00283       78.00442       55.35139
H         81.06843       79.54362       54.44642
H         79.98015       79.40794       55.87686
N         75.28201       76.65271       55.48250
C         74.39361       75.76768       56.25152
C         73.06492       75.38897       55.57792
O         72.31379       74.63165       56.17713
C         74.16476       76.33286       57.67518
C         73.42014       77.63569       57.76149
O         73.02487       78.21382       56.76195
O         73.18828       78.17048       58.97535
H         75.50346       77.57763       55.87559
H         74.94600       74.81694       56.42081
H         75.15711       76.47350       58.15806
H         73.60818       75.58075       58.27538
N         72.73015       75.80601       54.32785
C         71.56148       75.32165       53.60209
C         70.21912       75.84346       54.07360
O         69.32347       75.04188       54.29710
H         73.38806       76.39990       53.81181
H         71.56882       74.21021       53.58122
H         71.64582       75.64944       52.54954
N         69.97929       77.18279       54.14139
C         68.65214       77.77455       54.29815
C         68.34426       78.72501       53.13179
O         67.32836       79.40532       53.18010
C         68.51445       78.43806       55.68452
C         69.49279       79.53702       55.96701
O         70.36766       79.41193       56.98186
O         69.46381       80.56920       55.32302
H         70.76795       77.82803       54.01580
H         67.86241       76.99064       54.28195
H         68.64960       77.64305       56.44927
H         67.48403       78.84087       55.80412
N         69.14218       78.77656       52.01860
C         68.86997       79.61476       50.86166
C         69.19870       81.08195       51.05325
O         69.00904       81.82262       50.09874
H         69.94030       78.13405       51.92820
H         67.81198       79.48392       50.54435
H         69.51209       79.27013       50.02128
N         69.70121       81.58470       52.22067
C         70.04532       82.99234       52.39865
C         71.51888       83.13647       52.84495
O         71.65765       82.83195       54.20426
C         69.08330       83.65611       53.40329
C         67.65688       83.71888       52.83748
C         66.67610       84.39285       53.76287
N         65.40163       84.58631       53.35443
O         67.01919       84.77303       54.87341
H         69.84291       80.95478       53.01502
H         69.94626       83.52963       51.43108
H         69.42306       84.69710       53.59709
H         69.09097       83.09702       54.36541
H         67.28586       82.69458       52.61846
H         67.68673       84.29822       51.88920
H         65.10069       84.28208       52.41658
H         64.71799       85.05102       53.96957
N         72.01121       84.48978       52.59799
C         73.43072       84.67512       52.96353
C         73.44567       85.69077       54.08300
O         72.94560       86.78896       53.87662
C         74.27921       85.13903       51.73301
C         75.71339       85.53932       52.12086
C         74.35805       84.02274       50.67233
H         71.81827       84.77397       51.61024
H         73.89325       83.73093       53.33002
H         73.79785       86.03514       51.28222
H         76.26659       85.88898       51.22241
H         75.71004       86.37554       52.84995
H         76.26158       84.67986       52.55359
H         74.93401       84.37122       49.78816
H         74.86734       83.12636       51.08939
H         73.35340       83.71671       50.31786
N         74.02931       85.40735       55.28719
C         74.14690       86.39851       56.35184
C         75.55500       86.94099       56.35643
O         76.37418       86.46224       55.58027
C         73.67132       85.88269       57.73749
C         74.62415       84.97950       58.49592
N         74.92973       83.73713       58.07029
O         75.10298       85.37844       59.54774
H         74.50931       84.50821       55.39713
H         73.48680       87.25889       56.10940
H         72.67655       85.39691       57.64237
H         73.52955       86.78313       58.37408
H         74.50898       83.35282       57.22149
H         75.56958       83.14207       58.61776
N         75.90462       87.99620       57.14138
C         77.21478       88.61794       57.00760
C         78.35414       87.67880       57.39612
O         79.48558       87.94376       57.01688
C         77.27729       89.93918       57.79307
C         78.52841       90.71207       57.46717
C         78.75486       91.16448       56.15473
C         79.48114       90.97885       58.46091
C         79.92127       91.86223       55.84037
C         80.64886       91.67812       58.14370
C         80.87335       92.11984       56.83068
O         81.99737       92.79006       56.50969
H         75.19738       88.41356       57.76674
H         77.32041       88.84996       55.92424
H         77.20785       89.70982       58.87960
H         76.40572       90.57537       57.52351
H         78.03047       90.97516       55.37202
H         79.32491       90.63836       59.47694
H         80.08450       92.19968       54.82452
H         81.37904       91.87226       58.91825
H         82.68317       92.98455       57.16373
N         78.13059       86.55563       58.13665
C         79.16606       85.56553       58.40291
C         79.52668       84.89127       57.09097
O         80.68610       84.88553       56.70074
C         78.64128       84.51687       59.41337
C         79.72180       83.51618       59.84877
C         79.14805       82.49534       60.78985
O         78.26130       81.74425       60.41445
O         79.61474       82.39618       62.04905
H         77.18877       86.38654       58.51079
H         80.04698       86.06505       58.86506
H         77.78173       83.96937       58.97467
H         78.27874       85.04472       60.32295
H         80.54238       84.06976       60.35594
H         80.14430       82.98371       58.97056
N         78.53753       84.30581       56.35670
C         78.74414       83.60041       55.09503
C         79.16748       84.54262       53.96708
O         79.47712       84.05027       52.89068
C         77.43976       82.86170       54.68758
C         76.97405       81.85211       55.76052
C         75.62196       81.27009       55.45988
O         75.42180       80.07819       55.59937
O         74.58854       82.06950       55.15339
H         77.58174       84.36060       56.73567
H         79.54006       82.83770       55.24649
H         77.57968       82.32788       53.72365
H         76.64728       83.62771       54.55117
H         76.86248       82.35968       56.73186
H         77.72771       81.04562       55.89443
N         79.18937       85.89970       54.11836
C         79.58621       86.79530       53.05379
H         80.63885       86.59618       52.76215
H         78.92049       86.66337       52.17496
H         79.50907       87.84941       53.39989
H         78.90523       86.33210       55.00398
Ca        72.28485       80.69824       54.11799
O         73.63512       80.97963       58.14531
H         73.01070       80.83367       58.89923
H         74.53252       80.80872       58.52777
O         71.14030       82.68715       57.30585
H         71.08934       83.15964       58.17411
H         70.25888       82.24662       57.21608

Ca 1.0



