%chk=holoCaM-CaMKII.loop2.water2.frame467.chk
%nprocshared=20
%mem=10GB
%nosave
#b3lyp/svp scf=(tight,noincore,xqc) Test 
#IOP(5/87=12) Density=Current Pop=(MK,readradii) iop(6/33=2) iop(6/42=6)

holoCaM-CaMKII.loop2.water2.frame467 

   -2  1 
C         63.59922       70.95852       75.62895
C         63.30288       72.37710       75.23499
O         64.19410       73.21287       75.24836
H         64.66287       70.83430       75.92010
H         62.94977       70.65699       76.47745
H         63.38893       70.29055       74.76502
N         62.04587       72.70452       74.84063
C         61.66259       74.01578       74.33455
C         61.80525       75.12796       75.36369
O         61.23726       75.02588       76.44264
C         60.19310       73.96730       73.86423
C         59.77146       75.26402       73.24424
O         60.36842       75.69477       72.27282
O         58.74433       75.96156       73.76520
H         61.33583       71.95447       74.84743
H         62.29019       74.24212       73.44344
H         59.52745       73.73248       74.72339
H         60.06843       73.16828       73.10458
N         62.43807       76.28841       75.01874
C         62.31835       77.51284       75.80463
C         62.37951       78.72174       74.87587
O         63.20981       79.60043       75.06031
C         63.36355       77.54687       76.92521
H         62.82854       76.35878       74.06586
H         61.30696       77.55266       76.26758
H         63.23718       78.46870       77.53387
H         63.23601       76.67103       77.59547
H         64.39057       77.53097       76.50276
N         61.48589       78.80644       73.84249
C         61.43481       79.90883       72.86970
C         60.26354       79.84946       71.84820
O         60.11449       80.82710       71.12763
C         62.78364       80.04265       72.11577
C         63.20981       78.74946       71.49183
O         64.38410       78.18628       71.83533
O         62.48972       78.19524       70.68487
H         60.82102       78.03318       73.78458
H         61.26981       80.84890       73.44034
H         63.58587       80.36341       72.80969
H         62.71123       80.83165       71.33637
N         59.38341       78.80465       71.72542
C         58.21224       78.80635       70.85017
C         58.47003       78.79681       69.34903
O         57.49400       78.80165       68.61218
H         59.46506       77.97993       72.31627
H         57.58349       79.68640       71.10409
H         57.61322       77.89427       71.06909
N         59.71965       78.79732       68.80831
C         59.97574       78.88071       67.36659
C         59.64434       77.59965       66.57648
O         59.85533       77.60315       65.37152
C         61.43072       79.35745       67.13038
C         62.49075       78.39969       67.58758
N         63.79109       78.75994       67.55714
O         62.18310       77.29798       68.00030
H         60.52065       78.83298       69.44556
H         59.34957       79.70372       66.95686
H         61.56500       80.30757       67.69399
H         61.59630       79.57429       66.05386
H         64.07578       79.69377       67.22893
H         64.51090       78.10479       67.88436
N         59.09041       76.49112       67.15677
C         58.67422       75.30743       66.40724
C         59.79307       74.38680       65.94062
O         59.47289       73.38860       65.30998
H         58.85186       76.50887       68.15509
H         58.05454       75.62619       65.53996
H         58.02653       74.68764       67.06387
N         61.10726       74.62765       66.20722
C         62.20628       73.76376       65.77181
C         63.06509       73.31055       66.95031
O         62.81115       73.69788       68.08112
C         63.07723       74.53894       64.74294
C         62.31873       74.75055       63.43224
O         63.46862       75.78917       65.25297
H         61.35555       75.47678       66.72253
H         61.82691       72.83890       65.28241
H         63.98170       73.95759       64.45972
H         64.11618       75.61826       65.98503
H         61.39414       75.34209       63.59311
H         62.96663       75.28712       62.70685
H         62.04825       73.76642       62.99043
N         64.14885       72.51468       66.71937
C         65.14844       72.13492       67.71280
C         66.41655       72.89392       67.36965
O         66.83245       72.87698       66.21774
C         65.39617       70.59426       67.69139
C         64.12455       69.83356       68.14236
C         66.59721       70.21705       68.59086
C         64.23145       68.31487       67.96427
H         64.33345       72.21551       65.74962
H         64.83520       72.42234       68.74181
H         65.64521       70.29953       66.64759
H         63.25889       70.16847       67.53340
H         63.90684       70.06483       69.20918
H         66.82745       69.13560       68.54559
H         67.52100       70.72409       68.24913
H         66.40169       70.49980       69.64623
H         65.04078       67.87557       68.58067
H         63.28139       67.83666       68.28094
H         64.41257       68.06990       66.89604
N         67.11088       73.54504       68.34333
C         68.33104       74.30777       68.09041
C         69.50559       73.50627       68.59003
O         69.28989       72.41938       69.10274
C         68.29498       75.67730       68.81428
C         66.95726       76.33616       68.73550
O         65.94073       75.70164       69.35048
O         66.80747       77.42369       68.20481
H         66.79794       73.44187       69.32115
H         68.45015       74.48060       66.99808
H         69.10225       76.33195       68.41853
H         68.46469       75.52789       69.90196
N         70.78506       73.94790       68.47915
C         71.88660       73.16092       69.01162
C         71.78449       73.03786       70.54230
O         71.80884       71.90543       71.00307
C         73.25582       73.67882       68.53544
C         74.35038       72.75318       69.00185
C         74.44456       71.44440       68.49217
C         75.27391       73.18400       69.96586
C         75.44993       70.58493       68.94154
C         76.27202       72.31801       70.41889
C         76.36160       71.02067       69.90630
H         70.97484       74.84062       67.99747
H         71.80376       72.13995       68.57158
H         73.44422       74.70081       68.89135
H         73.28030       73.72894       67.42470
H         73.74421       71.09024       67.74514
H         75.20984       74.18335       70.37798
H         75.52002       69.58059       68.54359
H         76.97392       72.65329       71.17027
H         77.13644       70.35270       70.25773
N         71.63204       74.10866       71.40191
C         71.51132       73.98925       72.86095
C         70.38381       73.10895       73.39345
O         70.30273       72.94735       74.60378
C         71.23047       75.42458       73.32338
C         71.97895       76.23547       72.30267
C         71.62618       75.50576       71.01125
H         72.48906       73.61360       73.23649
H         70.14994       75.65851       73.16654
H         71.48370       75.62830       74.38580
H         71.74845       77.32168       72.29575
H         73.06671       76.09800       72.50371
H         70.61733       75.77244       70.64085
H         72.39315       75.79217       70.27986
N         69.48102       72.51578       72.56743
C         68.40880       71.64026       73.00914
C         68.77552       70.22449       72.61027
O         68.86408       69.36822       73.47908
C         67.07901       72.10375       72.38201
C         66.70258       73.52501       72.84349
C         65.44508       74.04324       72.20203
O         64.99263       75.26736       72.53122
O         64.83584       73.38089       71.37845
H         69.54686       72.67228       71.55852
H         68.29735       71.65789       74.11714
H         66.26534       71.40149       72.66848
H         67.17689       72.09558       71.27584
H         67.51887       74.23529       72.59182
H         66.56332       73.52055       73.94517
N         69.07616       69.91968       71.31885
C         69.55486       68.61842       70.91400
H         70.49244       68.37871       71.46137
H         68.78797       67.84530       71.12031
H         69.78286       68.62601       69.82598
H         69.00682       70.64382       70.59918
Ca        63.76686       76.02142       69.68842
O         60.67440       75.18701       69.48638
H         59.77100       74.85360       69.71562
H         60.66677       76.13686       69.76516
O         62.02215       73.02138       70.92587
H         62.61314       72.47313       70.35260
H         61.67974       72.38126       71.59672

Ca 1.0



