%chk=holoCaM-CaMKII.loop2.water2.frame69.chk
%nprocshared=20
%mem=10GB
%nosave
#b3lyp/svp scf=(tight,noincore,xqc) Test 
#IOP(5/87=12) Density=Current Pop=(MK,readradii) iop(6/33=2) iop(6/42=6)

holoCaM-CaMKII.loop2.water2.frame69 

   -2  1 
C         66.32782       70.85133       63.96004
C         64.85028       70.97105       63.72264
O         64.33728       70.37906       62.78507
H         66.80028       71.85419       63.91705
H         66.50206       70.41513       64.96820
H         66.80258       70.18925       63.20567
N         64.09315       71.69908       64.58435
C         62.63979       71.77282       64.51154
C         62.16124       72.59170       63.31515
O         62.54390       73.74870       63.20694
C         62.10177       72.42054       65.80756
C         60.61786       72.27294       65.96783
O         60.00243       72.85069       67.01581
O         59.97229       71.58548       65.19502
H         64.57435       72.14769       65.38035
H         62.25059       70.73068       64.47241
H         62.37846       73.49704       65.82548
H         62.55977       71.93246       66.69348
N         61.27379       72.07239       62.41547
C         60.70105       72.83499       61.30636
C         59.16955       72.94514       61.37435
O         58.61546       73.62709       60.52311
C         61.11256       72.17210       59.98584
H         60.98269       71.09558       62.52875
H         61.10159       73.87164       61.30744
H         62.22002       72.12719       59.91016
H         60.71182       71.13623       59.92929
H         60.72917       72.74962       59.11729
N         58.41580       72.27904       62.30441
C         56.94464       72.27093       62.30883
C         56.30829       72.52489       63.68424
O         55.08723       72.51190       63.76022
C         56.45006       70.93420       61.71584
C         56.89002       69.71231       62.46278
O         56.63832       68.60943       62.00461
O         57.60349       69.80227       63.59619
H         58.89862       71.66462       62.96445
H         56.55794       73.05844       61.62637
H         56.85862       70.85366       60.68442
H         55.34154       70.92798       61.64457
N         57.04450       72.77853       64.80434
C         56.46574       73.07003       66.11327
C         55.74673       71.92102       66.81967
O         55.24268       72.16767       67.90635
H         58.06115       72.85873       64.72021
H         55.76273       73.92426       66.00417
H         57.28217       73.39675       66.79270
N         55.63313       70.66349       66.29866
C         54.86162       69.59320       66.94844
C         55.49787       69.00901       68.23017
O         54.90221       68.10701       68.80306
C         54.54298       68.47026       65.92824
C         55.73348       67.67554       65.47453
N         55.58256       66.66837       64.58675
O         56.83924       67.92884       65.91368
H         56.02796       70.48367       65.36880
H         53.86718       70.01387       67.21730
H         54.05808       68.92508       65.03622
H         53.81884       67.76123       66.38376
H         54.65572       66.43919       64.20030
H         56.39663       66.11360       64.28974
N         56.67052       69.47436       68.75577
C         57.24865       68.99915       70.01329
C         57.99643       67.66797       69.96333
O         58.50742       67.27580       71.00327
H         57.12371       70.28187       68.31612
H         56.45510       68.96686       70.79229
H         57.99993       69.74687       70.34653
N         58.12369       66.92463       68.82767
C         58.84234       65.64653       68.74735
C         59.92780       65.67885       67.66656
O         60.09245       66.69786       67.00991
C         57.81595       64.51528       68.46577
C         56.88747       64.31829       69.66694
O         57.03703       64.80491       67.33191
H         57.66628       67.25899       67.97702
H         59.35818       65.41092       69.70475
H         58.32726       63.53850       68.32453
H         57.64541       64.80927       66.54850
H         56.30264       65.23797       69.87690
H         56.18067       63.48590       69.46556
H         57.48301       64.05617       70.56884
N         60.67925       64.56503       67.39926
C         61.65421       64.48151       66.31172
C         61.03932       63.63741       65.20947
O         60.50017       62.57601       65.49824
C         63.00753       63.83317       66.74437
C         63.56774       64.41222       68.06403
C         64.03794       63.99992       65.59770
C         64.80479       63.64676       68.55816
H         60.49706       63.70257       67.93423
H         61.87878       65.50069       65.92238
H         62.82399       62.74973       66.92223
H         62.79693       64.30523       68.85586
H         63.80910       65.49100       67.95150
H         63.66295       63.57319       64.64926
H         64.25545       65.07832       65.42751
H         64.99066       63.47832       65.80710
H         65.12114       64.03747       69.54655
H         64.56865       62.56538       68.66812
H         65.66570       63.75685       67.86878
N         61.12972       64.02748       63.91233
C         60.53017       63.30039       62.79783
C         61.61901       62.62617       62.00342
O         62.77652       62.73924       62.37630
C         59.77666       64.28933       61.88953
C         58.82865       65.16016       62.64720
O         57.68042       65.31667       62.26509
O         59.30955       65.87045       63.68261
H         61.67291       64.87625       63.69654
H         59.82955       62.51868       63.16604
H         59.24964       63.76683       61.06224
H         60.52538       64.97807       61.43833
N         61.33870       61.87588       60.90793
C         62.39154       61.23074       60.14083
C         63.28738       62.26579       59.43911
O         64.48135       62.21841       59.68980
C         61.80759       60.14115       59.21614
C         62.87529       59.36168       58.48842
C         62.88029       59.31661       57.08467
C         63.86420       58.65645       59.20083
C         63.85657       58.58152       56.40658
C         64.84136       57.92833       58.51825
C         64.83702       57.88945       57.12231
H         60.35181       61.72931       60.64034
H         63.02315       60.66788       60.86417
H         61.08383       60.55859       58.49904
H         61.23547       59.42462       59.84565
H         62.12613       59.84501       56.51469
H         63.88270       58.66393       60.28290
H         63.85108       58.54706       55.32533
H         65.59961       57.39097       59.07319
H         65.59170       57.32064       56.59575
N         62.82346       63.24037       58.58283
C         63.67971       64.24107       57.93940
C         64.56795       64.99922       58.90846
O         65.76574       65.10114       58.68088
C         62.68128       65.22369       57.30452
C         61.53277       64.31558       56.95942
C         61.43780       63.44741       58.21061
H         64.28574       63.73836       57.15319
H         62.28307       65.93042       58.06822
H         63.09633       65.82270       56.46578
H         60.58826       64.82736       56.67769
H         61.86179       63.67394       56.10957
H         60.91678       63.96449       59.04570
H         60.89451       62.53852       57.91697
N         64.02329       65.55105       60.02534
C         64.76226       66.32224       61.02143
C         65.89902       65.49367       61.58771
O         67.02558       65.96662       61.62425
C         63.81160       66.76071       62.15673
C         62.68546       67.68216       61.64424
C         61.70172       68.04669       62.71224
O         60.73989       68.73319       62.41740
O         61.83770       67.60244       63.97596
H         63.01996       65.37679       60.18323
H         65.18124       67.24500       60.56008
H         64.38716       67.30733       62.93686
H         63.37218       65.85419       62.61958
H         62.10023       67.18931       60.84404
H         63.12589       68.61064       61.22316
N         65.66742       64.21976       62.00120
C         66.68040       63.32884       62.52156
H         67.66797       63.82355       62.61821
H         66.36307       62.96114       63.51942
H         66.78196       62.45809       61.83887
H         64.72274       63.84412       61.90219
Ca        58.67036       67.93361       64.06096
O         59.32137       69.48115       67.16344
H         59.16785       70.41924       67.43143
H         59.78852       69.09033       67.94256
O         62.13124       68.96568       66.48096
H         62.37763       69.51181       67.26828
H         62.83946       68.27708       66.42185

Ca 1.0



