%chk=holoCaM.loop3.water2.frame66.chk
%nprocshared=20
%mem=10GB
%nosave
#b3lyp/svp scf=(tight,noincore,xqc) Test 
#IOP(5/87=12) Density=Current Pop=(MK,readradii) iop(6/33=2) iop(6/42=6)

holoCaM.loop3.water2.frame66 

   0  1 
C         81.85033       -9.36852       23.18420
C         81.70476       -8.17345       24.07975
O         81.50340       -8.34787       25.27296
H         82.71023       -9.98427       23.51755
H         80.92190       -9.97628       23.22559
H         82.01939       -9.06519       22.12872
N         81.76909       -6.91847       23.55745
C         81.57208       -5.70268       24.32930
C         80.24913       -5.12864       23.88916
O         80.17885       -4.36422       22.93679
C         82.79013       -4.77786       24.15679
C         82.61212       -3.39584       24.72278
O         82.28001       -3.17025       26.01216
O         82.78269       -2.44207       23.98326
H         81.90737       -6.81321       22.53990
H         81.48322       -5.92797       25.41031
H         83.02073       -4.67652       23.07319
H         83.66440       -5.25344       24.64583
N         79.12660       -5.62404       24.47674
C         77.77009       -5.30970       24.05759
C         77.45838       -3.86633       24.39689
O         77.13346       -3.10501       23.49600
C         76.77342       -6.30541       24.70218
C         77.10449       -7.76275       24.27881
C         76.21254       -8.82732       24.93591
C         74.73273       -8.78443       24.52396
N         74.54621       -9.07713       23.10091
H         79.25645       -6.30325       25.24169
H         77.68292       -5.45916       22.95722
H         75.74619       -6.04809       24.36780
H         76.81654       -6.22300       25.81015
H         78.13788       -8.01678       24.58862
H         77.07604       -7.85741       23.17355
H         76.28799       -8.71481       26.03921
H         76.61382       -9.83197       24.67473
H         74.28539       -7.80024       24.77522
H         74.19521       -9.55863       25.11517
H         73.52295       -9.08460       22.88810
H         74.99793       -8.34820       22.50546
H         74.94148      -10.01881       22.87260
N         77.59008       -3.40566       25.67707
C         77.37698       -2.00308       26.04344
C         78.34472       -1.03650       25.34785
O         78.12690        0.16368       25.44161
C         77.42409       -1.80307       27.57544
C         78.77621       -2.06465       28.18346
O         79.28979       -3.16951       28.12204
O         79.41218       -1.07587       28.83556
H         77.83848       -4.08698       26.40807
H         76.34610       -1.73927       25.71661
H         76.67553       -2.46663       28.05937
H         77.13595       -0.75305       27.80375
N         79.40177       -1.47524       24.60263
C         80.22241       -0.60197       23.77982
C         81.16367        0.32557       24.52374
O         81.84286        1.08107       23.84211
H         79.59108       -2.48009       24.53029
H         79.55408       -0.00593       23.12142
H         80.84312       -1.22984       23.10871
N         81.27778        0.35793       25.88512
C         82.14616        1.32968       26.55509
C         83.63479        1.15747       26.24862
O         84.37445        2.10992       26.45245
C         81.90135        1.37695       28.08026
C         82.16122        0.08913       28.82875
N         82.01350        0.05748       30.17231
O         82.48110       -0.92975       28.23772
H         80.69314       -0.26908       26.45456
H         81.85340        2.33083       26.16495
H         80.84183        1.66057       28.25929
H         82.54528        2.17292       28.51345
H         81.73435        0.90323       30.69005
H         82.17617       -0.81370       30.69671
N         84.15175       -0.01868       25.79343
C         85.55274       -0.20439       25.43569
C         86.28518       -1.15539       26.36296
O         87.42340       -1.48468       26.05868
H         83.53167       -0.83060       25.69881
H         86.11359        0.75530       25.43623
H         85.58282       -0.60399       24.39902
N         85.73354       -1.59473       27.53158
C         86.41358       -2.46878       28.47860
C         85.58649       -3.71241       28.75747
O         84.37335       -3.62427       28.88192
C         86.66140       -1.76459       29.82839
C         87.62091       -0.59796       29.75826
C         87.25608        0.61045       29.14046
C         88.89300       -0.70373       30.35137
C         88.14556        1.69099       29.12151
C         89.78144        0.37382       30.32487
C         89.40874        1.57774       29.71309
O         90.25160        2.63021       29.69322
H         84.80037       -1.26471       27.79686
H         87.41352       -2.77859       28.09921
H         87.10076       -2.53222       30.50548
H         85.70753       -1.43013       30.28950
H         86.27920        0.72713       28.69055
H         89.20215       -1.62192       30.83580
H         87.84951        2.62099       28.65310
H         90.75641        0.27269       30.78579
H         91.12918        2.59410       30.10070
N         86.21981       -4.89609       28.97517
C         85.57207       -6.13993       29.37714
C         86.12267       -6.57508       30.72829
O         87.33262       -6.60385       30.91111
C         85.79068       -7.20871       28.26095
C         84.80672       -6.89448       27.10079
C         85.60112       -8.65163       28.76824
C         84.89097       -7.85649       25.91849
H         87.24740       -4.91935       28.87816
H         84.47347       -6.01424       29.50742
H         86.84372       -7.15180       27.90687
H         85.00264       -5.86681       26.72779
H         83.76017       -6.92683       27.48200
H         85.82388       -9.39044       27.97424
H         86.32151       -8.87746       29.58070
H         84.57429       -8.81236       29.12696
H         84.18330       -7.52906       25.13329
H         85.91569       -7.86445       25.49753
H         84.59022       -8.88316       26.21295
N         85.26529       -7.03336       31.68773
C         85.69637       -7.60235       32.96086
C         85.67953       -9.11794       32.87760
O         85.31491       -9.65020       31.84378
C         84.76754       -7.10728       34.08697
O         83.45157       -7.53360       33.84831
H         84.26260       -7.09896       31.45298
H         86.74005       -7.29537       33.18942
H         84.79842       -5.99658       34.12322
H         85.11313       -7.51075       35.06426
H         82.90913       -7.22513       34.61964
N         86.07786       -9.88621       33.92738
C         86.02818      -11.34667       33.90901
C         84.59782      -11.83459       33.75418
O         84.34860      -12.69710       32.92480
C         86.62359      -11.91613       35.19935
H         86.42158       -9.41301       34.77758
H         86.65217      -11.73667       33.07218
H         86.60859      -13.02736       35.16475
H         87.68093      -11.58938       35.29965
H         86.05335      -11.57403       36.08826
N         83.60235      -11.29063       34.51242
C         82.19870      -11.69091       34.43600
C         81.66856      -11.61562       33.01741
O         81.15103      -12.61221       32.53146
C         81.35217      -10.80394       35.35578
H         83.85843      -10.53448       35.16610
H         82.10175      -12.73994       34.79450
H         81.41711       -9.73844       35.04588
H         80.28883      -11.12336       35.32516
H         81.71473      -10.89129       36.40211
N         81.80912      -10.48149       32.27582
C         81.39444      -10.38721       30.87721
C         82.04176      -11.49822       30.06286
O         81.33616      -12.22372       29.37624
C         81.78364       -9.02365       30.27545
C         81.04017       -7.83225       30.89408
C         81.42835       -6.57622       30.16920
O         81.97684       -5.66045       30.75946
O         81.16709       -6.46938       28.85239
H         82.28535       -9.67805       32.71166
H         80.28932      -10.49225       30.79642
H         81.55035       -9.04794       29.18690
H         82.86914       -8.86629       30.40838
H         81.28435       -7.73928       31.97332
H         79.94319       -7.97238       30.78895
N         83.38070      -11.71670       30.13476
C         84.04489      -12.78762       29.42857
H         85.12254      -12.80337       29.70238
H         83.59878      -13.76415       29.71404
H         83.95440      -12.63400       28.33404
H         83.94574      -11.12568       30.74699
Ca        81.82249       -4.73071       27.57724
O         79.96358       -3.10172       31.19740
H         79.80907       -4.07585       31.27989
H         79.05486       -2.71385       31.13505
O         83.26966       -3.11283       31.35845
H         82.76456       -3.16106       32.20740
H         84.19117       -2.87135       31.62659

Ca 1.0



