%chk=holoCaM-CaMKII.loop3.water3.frame305.chk
%nprocshared=20
%mem=10GB
%nosave
#b3lyp/svp scf=(tight,noincore,xqc) Test 
#IOP(5/87=12) Density=Current Pop=(MK,readradii) iop(6/33=2) iop(6/42=6)

holoCaM-CaMKII.loop3.water3.frame305 

   0  1 
C         35.77907       25.67941       48.29050
C         35.13779       24.36356       47.96119
O         35.42619       23.38438       48.63457
H         36.88043       25.59621       48.18652
H         35.41695       26.48680       47.61973
H         35.53089       25.95722       49.33704
N         34.23293       24.26798       46.94611
C         33.53147       23.02901       46.63468
C         34.52014       21.96361       46.16484
O         35.14989       22.14361       45.13171
C         32.44003       23.30252       45.58473
C         31.49819       22.15694       45.36695
O         31.59475       21.01573       46.07592
O         30.60612       22.28041       44.54803
H         34.00113       25.12122       46.41408
H         33.01673       22.71270       47.56218
H         32.91620       23.58535       44.62084
H         31.81798       24.15764       45.93085
N         34.75422       20.85913       46.92945
C         35.80992       19.88808       46.64768
C         35.45114       18.91340       45.52657
O         36.33604       18.20194       45.07232
C         36.14366       19.15254       47.96895
C         37.38999       18.25825       47.93737
C         37.71807       17.77610       49.35961
C         38.99762       16.93236       49.39263
N         39.33625       16.55802       50.76623
H         34.25309       20.78355       47.82234
H         36.71688       20.46333       46.35526
H         35.26464       18.55823       48.30439
H         36.33493       19.94551       48.72702
H         38.24938       18.85256       47.55775
H         37.22776       17.38428       47.27228
H         36.86940       17.18033       49.76283
H         37.86783       18.66452       50.01252
H         39.83917       17.51911       48.96185
H         38.85591       16.01511       48.77949
H         38.56290       15.99644       51.19087
H         40.21075       15.98540       50.76099
H         39.50221       17.41704       51.34064
N         34.17288       18.78244       45.06636
C         33.77376       17.76321       44.09281
C         32.65511       18.24074       43.15810
O         32.19120       17.43606       42.36078
C         33.36888       16.46083       44.82529
C         32.14670       16.66394       45.65907
O         32.17021       17.56405       46.65159
O         31.10870       16.08168       45.38845
H         33.43550       19.31546       45.54245
H         34.64177       17.49150       43.45190
H         34.20181       16.10898       45.47120
H         33.16966       15.66921       44.06912
N         32.19772       19.52919       43.15507
C         31.19984       20.00365       42.21195
C         29.76467       19.61271       42.51737
O         28.93615       19.90330       41.66461
H         32.65025       20.23759       43.74452
H         31.48053       19.65245       41.19407
H         31.22132       21.11395       42.18163
N         29.35436       18.99633       43.67459
C         27.94426       18.62560       43.85782
C         27.00424       19.82862       43.88199
O         25.80281       19.62836       43.77009
C         27.69472       17.73820       45.10531
C         27.34625       18.48278       46.41294
N         27.13539       17.54857       47.50901
O         28.25973       19.46745       46.78349
H         30.04663       18.74871       44.39570
H         27.70332       17.99273       42.97274
H         28.52891       17.01712       45.23733
H         26.78241       17.13744       44.89564
H         26.27440       16.99290       47.30500
H         26.94676       18.09653       48.37524
N         27.47751       21.09522       44.08347
C         26.63334       22.27542       44.12754
C         26.66921       23.00812       45.45885
O         25.96113       24.00101       45.55075
H         28.48297       21.24110       44.21256
H         25.57416       22.01054       43.92534
H         26.96244       22.97217       43.32657
N         27.44325       22.62132       46.52460
C         27.40576       23.32177       47.81672
C         28.56962       22.95963       48.74701
O         29.41290       22.14737       48.39050
C         26.01112       23.15834       48.48169
C         25.60953       21.74385       48.83552
C         26.19946       21.07484       49.92068
C         24.58781       21.10100       48.11244
C         25.76509       19.79494       50.28259
C         24.16650       19.81628       48.46722
C         24.75013       19.16120       49.55929
O         24.34462       17.92777       49.92348
H         28.08564       21.83116       46.40549
H         27.55486       24.40525       47.61211
H         25.25495       23.57327       47.78748
H         25.92640       23.78486       49.39294
H         26.97372       21.54949       50.50722
H         24.11209       21.59424       47.27399
H         26.21398       19.29538       51.13139
H         23.37987       19.33566       47.89903
H         23.64292       17.45613       49.45237
N         28.70713       23.61443       49.94177
C         29.88348       23.52458       50.80736
C         29.49574       23.00516       52.18765
O         28.57611       23.54492       52.78802
C         30.52392       24.94086       50.96548
C         30.75191       25.62988       49.59368
C         31.84840       24.84009       51.75593
C         31.20220       27.08834       49.72473
H         27.97594       24.28484       50.22250
H         30.64955       22.85897       50.35494
H         29.80918       25.57605       51.53598
H         29.79133       25.66290       49.03756
H         31.48532       25.05781       48.98518
H         32.28494       25.83801       51.95339
H         31.68831       24.37500       52.74836
H         32.58874       24.22908       51.19455
H         32.20050       27.17192       50.19694
H         31.26715       27.54856       48.71693
H         30.46312       27.66343       50.32448
N         30.22520       22.01953       52.78702
C         29.99161       21.54044       54.14917
C         31.17898       21.87946       55.04534
O         32.13469       22.47098       54.57241
C         29.73917       20.02552       54.11549
O         30.87373       19.35303       53.63097
H         31.02502       21.62343       52.27562
H         29.09623       22.03027       54.58939
H         28.84854       19.83492       53.47031
H         29.50104       19.64091       55.12928
H         30.56292       18.69097       52.96192
N         31.17623       21.54381       56.36722
C         32.28428       21.82981       57.28052
C         33.56083       21.12719       56.85399
O         34.59524       21.77497       56.77861
C         31.92655       21.39096       58.70434
H         30.34216       21.06912       56.74471
H         32.46235       22.92848       57.31954
H         32.76041       21.63672       59.39791
H         31.02040       21.93309       59.04900
H         31.73265       20.29849       58.74890
N         33.54969       19.79970       56.54036
C         34.73198       19.04552       56.12334
C         35.45981       19.73881       54.98904
O         36.65971       19.95322       55.09161
C         34.32103       17.63379       55.68459
H         32.64173       19.30986       56.56918
H         35.42998       18.94647       56.98462
H         33.81794       17.10442       56.52128
H         33.62039       17.67823       54.82203
H         35.21585       17.04676       55.38596
N         34.77121       20.16562       53.89807
C         35.37652       20.89292       52.78485
C         36.08262       22.14237       53.28602
O         37.27496       22.27963       53.05032
C         34.28510       21.27302       51.76253
C         33.68402       20.03082       51.08546
C         32.47394       20.38820       50.27843
O         32.53183       21.23152       49.40464
O         31.30251       19.78289       50.53153
H         33.75384       19.99787       53.89049
H         36.12830       20.24562       52.27755
H         34.71078       21.92718       50.96996
H         33.48916       21.84271       52.28887
H         33.36713       19.27455       51.83230
H         34.45508       19.56464       50.43748
N         35.40992       23.08121       54.00624
C         36.01773       24.28159       54.54109
H         37.09300       24.36585       54.28027
H         35.48478       25.16986       54.14274
H         35.92367       24.27547       55.64777
H         34.41598       22.93599       54.20605
Ca        30.22099       18.46566       47.17965
O         29.60270       15.98532       48.84215
H         29.57909       15.88410       47.85738
H         28.66494       15.84773       49.12695
O         32.79626       17.42590       49.38612
H         33.36277       16.71645       48.99176
H         32.30105       16.97857       50.11650
O         28.75850       18.79589       50.15448
H         28.71625       19.67268       50.61298
H         28.47963       18.14226       50.84271

Ca 1.0



