%chk=holoCaM-CaMKII.loop4.water1.frame452.chk
%nprocshared=20
%mem=10GB
%nosave
#b3lyp/svp scf=(tight,noincore,xqc) Test 
#IOP(5/87=12) Density=Current Pop=(MK,readradii) iop(6/33=2) iop(6/42=6)

holoCaM-CaMKII.loop4.water1.frame452 

   -3  1 
C         69.62480       51.89943       28.93867
C         68.84778       52.92010       28.16254
O         67.63265       52.82183       28.07960
H         70.17954       52.40051       29.76016
H         68.95052       51.13271       29.37416
H         70.35210       51.39862       28.26481
N         69.50576       53.94910       27.56768
C         68.84318       54.99061       26.79373
C         68.17528       54.40097       25.55474
O         68.83380       53.71754       24.78338
C         69.87130       56.07720       26.42593
C         69.24725       57.21695       25.68292
O         69.67257       57.52940       24.58399
O         68.22875       57.90688       26.22990
H         70.53022       53.99771       27.69045
H         68.08172       55.48345       27.43751
H         70.69617       55.63962       25.82217
H         70.30451       56.48677       27.36537
N         66.86330       54.67189       25.29575
C         66.11352       54.15599       24.15037
C         65.90860       55.28155       23.14679
O         66.26910       55.12001       21.98937
C         64.73235       53.58911       24.61537
C         64.90140       52.47930       25.68269
C         63.92238       53.06919       23.40647
C         63.57228       52.03722       26.30754
H         66.37340       55.31477       25.93316
H         66.67891       53.33964       23.64493
H         64.16213       54.42202       25.08343
H         65.52118       52.87073       26.51393
H         65.42208       51.59886       25.24723
H         64.44912       52.22059       22.91993
H         62.90867       52.73900       23.70637
H         63.76891       53.86952       22.65364
H         63.04997       52.91068       26.75420
H         62.90201       51.55833       25.56735
H         63.76746       51.29584       27.11056
N         65.33897       56.45667       23.53461
C         65.07531       57.58048       22.64067
C         66.30740       58.03420       21.88896
O         66.23345       58.19211       20.67824
C         64.59912       58.81188       23.44678
C         63.24631       58.67026       24.06632
O         63.10791       58.72921       25.40031
O         62.25485       58.57529       23.36174
H         65.08851       56.56267       24.52707
H         64.29461       57.30109       21.89851
H         64.53788       59.69955       22.77908
H         65.34710       59.04244       24.23789
N         67.43905       58.36053       22.56649
C         68.54685       59.08976       21.96537
C         68.75263       60.43838       22.64407
O         69.41411       61.28339       22.05853
H         67.47369       58.12309       23.56461
H         68.33289       59.29299       20.89406
H         69.48460       58.49723       22.00532
N         68.25953       60.69992       23.89334
C         68.39809       61.96951       24.59285
C         69.47795       61.90643       25.66982
O         69.63877       62.87812       26.39519
C         67.01331       62.42227       25.12574
C         66.36101       61.52990       26.15798
O         65.25822       61.82549       26.58881
O         66.96245       60.41942       26.61967
H         67.79704       59.95568       24.41871
H         68.73390       62.76107       23.88768
H         66.32257       62.49596       24.25712
H         67.11164       63.43618       25.56900
N         70.33060       60.84098       25.75894
C         71.48292       60.80695       26.64518
C         71.16141       60.61544       28.10738
O         72.10796       60.58685       28.88414
H         70.24426       60.05980       25.09661
H         72.07615       61.73729       26.50445
H         72.12862       59.95119       26.35241
N         69.88934       60.46860       28.57498
C         69.58392       60.27951       29.98707
C         68.81137       59.00274       30.23265
O         68.41262       58.32874       29.28811
C         68.88365       61.54410       30.54808
C         67.62906       62.07174       29.81581
C         66.37247       61.25018       29.98349
N         65.28887       61.78202       30.59725
O         66.30796       60.11800       29.53420
H         69.10176       60.50103       27.91561
H         70.52456       60.16581       30.57075
H         69.63897       62.35633       30.46397
H         68.66116       61.42463       31.63018
H         67.83953       62.21837       28.73699
H         67.43185       63.08179       30.23515
H         65.30563       62.74108       30.97351
H         64.42060       61.23782       30.68876
N         68.58633       58.60208       31.51162
C         67.79913       57.43900       31.88514
C         66.66321       57.92574       32.76153
O         66.93626       58.52039       33.79853
C         68.69126       56.38465       32.60449
C         67.87302       55.17947       33.10278
C         69.78771       55.86963       31.65467
H         68.99058       59.16458       32.27889
H         67.37732       56.94590       30.99078
H         69.17667       56.85605       33.48751
H         67.38607       54.65893       32.25414
H         68.53409       54.45206       33.62146
H         67.09653       55.49672       33.82872
H         70.43648       56.70044       31.30922
H         70.43156       55.12662       32.17284
H         69.33479       55.37846       30.76446
N         65.36347       57.67700       32.42848
C         64.24430       58.03221       33.29892
C         63.79847       56.79828       34.04306
O         64.34400       55.73926       33.77969
C         63.08787       58.74079       32.54947
C         62.18910       57.85862       31.70292
N         62.62643       57.22582       30.59098
O         61.01497       57.74489       32.02329
H         65.18732       57.10024       31.59713
H         64.60333       58.75057       34.06875
H         63.48695       59.57495       31.94143
H         62.43888       59.19578       33.33016
H         63.58694       57.33189       30.25005
H         61.97863       56.64597       30.03744
N         62.86586       56.84276       35.03122
C         62.56392       55.65644       35.82748
C         61.95532       54.53285       34.99083
O         62.07835       53.37900       35.37632
C         61.64667       56.01198       37.00960
C         61.54422       54.88419       38.00580
C         62.68756       54.45934       38.70650
C         60.31439       54.25634       38.25438
C         62.60149       53.42374       39.63859
C         60.23086       53.21791       39.18736
C         61.37517       52.79956       39.88366
O         61.30833       51.80395       40.78978
H         62.42813       57.74733       35.26742
H         63.54135       55.30778       36.23095
H         60.64868       56.29697       36.60834
H         62.05793       56.89250       37.54970
H         63.64632       54.93387       38.53725
H         59.42218       54.56778       37.72591
H         63.48960       53.10944       40.17270
H         59.27654       52.74105       39.36936
H         60.47892       51.34951       40.99401
N         61.28193       54.80233       33.83515
C         60.71130       53.77370       32.96885
C         61.83409       52.87574       32.46214
O         61.77971       51.66704       32.63657
C         59.99093       54.44807       31.76810
C         59.11370       53.49255       30.94092
C         57.81938       53.18170       31.64332
O         57.49433       51.91273       31.95007
O         57.03740       54.08342       31.90615
H         61.16661       55.78593       33.56128
H         59.96172       53.19235       33.55063
H         60.75626       54.89553       31.10305
H         59.34571       55.28474       32.11644
H         59.67426       52.56494       30.69645
H         58.84495       53.99132       29.98501
N         62.91157       53.44575       31.85148
C         64.08005       52.72517       31.34585
C         64.75558       51.94167       32.45405
O         64.90420       50.73650       32.30942
C         65.05736       53.73570       30.69086
C         64.43755       54.25812       29.38728
C         65.13057       55.41280       28.74014
O         64.54020       55.92152       27.65102
O         66.11633       55.94432       29.21830
H         62.90540       54.47399       31.76537
H         63.76687       51.99887       30.56166
H         66.03044       53.25988       30.44191
H         65.24144       54.57173       31.39996
H         63.40462       54.61293       29.57710
H         64.38456       53.42198       28.66387
N         65.16724       52.55188       33.59706
C         65.79129       51.85853       34.70338
H         66.77964       52.31814       34.91152
H         65.15029       51.96125       35.60461
H         65.93853       50.77824       34.49716
H         65.01521       53.55553       33.70686
Ca        64.73270       57.95353       26.74325
O         62.94779       59.44152       28.52745
H         62.59256       59.76887       29.39088
H         62.18164       58.98042       28.10177

Ca 1.0



