%chk=holoCaM-CaMKII.loop2.water2.frame91.chk
%nprocshared=20
%mem=10GB
%nosave
#b3lyp/svp scf=(tight,noincore,xqc) Test 
#IOP(5/87=12) Density=Current Pop=(MK,readradii) iop(6/33=2) iop(6/42=6)

holoCaM-CaMKII.loop2.water2.frame91 

   -2  1 
C         12.00718       71.48566       68.91635
C         10.74339       72.02038       69.53988
O          9.71588       72.04822       68.88105
H         12.85522       71.50014       69.63601
H         11.84958       70.42864       68.61009
H         12.28987       72.08546       68.02874
N         10.74467       72.40852       70.84226
C          9.54759       72.77651       71.59412
C          9.00124       74.15835       71.23057
O          9.78141       75.09969       71.18883
C          9.90812       72.78372       73.09666
C          8.71083       72.78793       73.99686
O          8.88564       72.85356       75.32901
O          7.58680       72.66246       73.54258
H         11.63565       72.32628       71.35735
H          8.78649       71.97888       71.44143
H         10.55643       73.65977       73.31649
H         10.47264       71.86345       73.35451
N          7.65620       74.37065       71.07570
C          7.06223       75.69544       70.86627
C          6.08647       76.12728       71.97403
O          5.62986       77.26075       71.90815
C          6.30454       75.69692       69.53354
H          7.02490       73.56191       71.13472
H          7.86098       76.46672       70.81695
H          5.47356       74.95737       69.56702
H          5.87106       76.69986       69.32759
H          6.98518       75.43103       68.69895
N          5.65791       75.28502       72.96388
C          4.55437       75.62089       73.87737
C          4.73756       75.15123       75.32560
O          3.85932       75.44140       76.12731
C          3.23842       75.05453       73.29672
C          3.24219       73.56585       73.11384
O          2.29413       73.02022       72.57280
O          4.29368       72.82653       73.49802
H          5.99148       74.32178       72.93836
H          4.42687       76.72437       73.91997
H          3.08269       75.51085       72.29534
H          2.37612       75.33340       73.93933
N          5.81913       74.43738       75.75234
C          6.00202       74.02686       77.14027
C          5.00067       73.00636       77.66953
O          5.06653       72.72879       78.85871
H          6.57663       74.22829       75.09681
H          5.95317       74.93695       77.77681
H          7.01433       73.58581       77.26420
N          4.05144       72.40741       76.88961
C          3.03722       71.50274       77.43940
C          3.59754       70.20990       78.05380
O          2.82016       69.50051       78.67810
C          1.94314       71.18211       76.38371
C          2.42664       70.39567       75.19485
N          1.56293       70.00915       74.23043
O          3.60112       70.09739       75.09686
H          4.00388       72.64742       75.89428
H          2.52566       72.05941       78.25464
H          1.50214       72.13285       76.01246
H          1.13542       70.59543       76.87069
H          0.56354       70.25022       74.28348
H          1.89801       69.45334       73.43244
N          4.90081       69.81896       77.90821
C          5.46442       68.62173       78.52478
C          5.76115       67.50235       77.53748
O          6.25350       66.47297       77.97217
H          5.53478       70.38469       77.33606
H          4.76131       68.19236       79.27158
H          6.38720       68.90833       79.07245
N          5.38927       67.58509       76.22689
C          5.40489       66.45537       75.29921
C          6.04405       66.82338       73.95806
O          6.43730       67.96186       73.76417
C          3.92102       66.01585       75.07108
C          3.27339       65.55421       76.38037
O          3.12970       67.06138       74.55630
H          4.94151       68.43913       75.90026
H          5.96359       65.59433       75.72484
H          3.87814       65.14860       74.37829
H          3.58932       67.45236       73.77096
H          3.19971       66.39644       77.10152
H          2.24342       65.18922       76.18073
H          3.85957       64.73118       76.83969
N          6.06584       65.89890       72.94737
C          6.37277       66.22011       71.55528
C          5.06128       66.19589       70.79516
O          4.29003       65.25941       70.93867
C          7.39007       65.23476       70.90037
C          8.75503       65.30340       71.62489
C          7.54625       65.56264       69.39321
C          9.84211       64.44186       70.97017
H          5.71136       64.95168       73.13888
H          6.80523       67.24153       71.46808
H          6.99709       64.19591       70.97153
H          8.61236       64.95275       72.66919
H          9.12235       66.35242       71.65260
H          6.57966       65.45412       68.86747
H          7.92624       66.59621       69.24675
H          8.21481       64.84729       68.87722
H          9.50372       63.38933       70.86842
H         10.11494       64.83870       69.96906
H         10.76455       64.47135       71.58452
N          4.79127       67.18806       69.90552
C          3.56654       67.26419       69.12151
C          3.89010       66.94919       67.68493
O          5.03083       66.68673       67.36454
C          2.98257       68.68312       69.21733
C          2.78123       69.11499       70.62658
O          1.73319       69.63173       70.97833
O          3.83494       69.05669       71.45681
H          5.50455       67.91052       69.74346
H          2.81945       66.52417       69.47957
H          2.03070       68.78204       68.65413
H          3.72046       69.39119       68.77713
N          2.90225       66.91748       66.76025
C          3.14267       66.57554       65.36710
C          3.99823       67.62614       64.64230
O          4.98191       67.21676       64.03578
C          1.79273       66.26044       64.70328
C          1.93814       65.49859       63.41130
C          2.30312       66.14733       62.22337
C          1.69128       64.11143       63.39167
C          2.40223       65.42120       61.03103
C          1.80441       63.38932       62.20326
C          2.15318       64.04462       61.02133
H          1.93668       67.08594       67.07705
H          3.68924       65.60282       65.35714
H          1.14107       67.14935       64.58854
H          1.27186       65.58071       65.41580
H          2.49183       67.21308       62.21764
H          1.41946       63.58357       64.29862
H          2.66823       65.92598       60.11249
H          1.61710       62.32270       62.20054
H          2.22935       63.48428       60.09899
N          3.76122       68.98340       64.67572
C          4.58400       69.98091       63.98727
C          5.95833       70.19598       64.62581
O          6.69523       71.04679       64.15038
C          3.72814       71.25085       64.05724
C          3.06465       71.10169       65.40407
C          2.67551       69.62482       65.39678
H          4.73269       69.72254       62.91555
H          4.27160       72.20564       63.88719
H          2.91908       71.17149       63.29613
H          3.85185       71.26063       66.17661
H          2.22588       71.79779       65.61457
H          2.59505       69.31642       66.45116
H          1.72664       69.43917       64.85313
N          6.38064       69.43896       65.67326
C          7.68868       69.53963       66.30169
C          8.50596       68.33804       65.85687
O          9.60405       68.52192       65.34962
C          7.50005       69.61542       67.83185
C          6.66625       70.85654       68.21611
C          6.32580       70.93451       69.67575
O          5.62180       71.84721       70.07450
O          6.74858       70.00017       70.54527
H          5.75928       68.71925       66.04890
H          8.23367       70.45511       65.97752
H          8.48819       69.65411       68.34045
H          6.97291       68.69992       68.16957
H          5.70100       70.83472       67.67177
H          7.21479       71.77760       67.92268
N          7.98876       67.08072       65.92254
C          8.65500       65.92039       65.37913
H          9.60522       65.73488       65.91695
H          7.99587       65.03029       65.48466
H          8.84993       66.07319       64.29535
H          7.05822       66.93773       66.31676
Ca         4.37282       70.80547       72.65248
O          6.74706       70.52841       75.17341
H          7.43129       70.11449       75.75715
H          6.57667       71.41422       75.58185
O          8.60677       69.57341       72.71343
H          8.79466       69.17303       71.82806
H          9.49200       69.62597       73.15086

Ca 1.0



