%chk=holoCaM.loop2.water2.frame119.chk
%nprocshared=20
%mem=10GB
%nosave
#b3lyp/svp scf=(tight,noincore,xqc) Test 
#IOP(5/87=12) Density=Current Pop=(MK,readradii) iop(6/33=2) iop(6/42=6)

holoCaM.loop2.water2.frame119 

   -2  1 
C         15.49181       13.64557       -2.17445
C         16.45403       14.75809       -1.86265
O         16.96639       14.82446       -0.75819
H         14.51722       14.05011       -2.51579
H         15.92438       13.02591       -2.99227
H         15.33492       12.98848       -1.29360
N         16.77365       15.65147       -2.83245
C         17.93154       16.54327       -2.77313
C         17.59258       17.97483       -2.36589
O         16.57778       18.50775       -2.79169
C         18.55848       16.53495       -4.16654
C         19.71921       17.45848       -4.33150
O         19.56830       18.33141       -5.16758
O         20.91020       17.37362       -3.65836
H         16.31349       15.51142       -3.74752
H         18.70469       16.13410       -2.09487
H         17.76605       16.85724       -4.88605
H         18.85356       15.51690       -4.45553
N         18.48396       18.67709       -1.59808
C         18.33485       20.07256       -1.19531
C         19.53883       20.96543       -1.58720
O         19.48274       22.14709       -1.27641
C         18.12353       20.09433        0.32528
H         19.31941       18.18682       -1.26193
H         17.42790       20.51427       -1.66074
H         18.98702       19.63420        0.85353
H         17.98012       21.12991        0.69856
H         17.21069       19.51095        0.57907
N         20.66042       20.49111       -2.22276
C         21.85620       21.30678       -2.52362
C         22.37291       21.20781       -3.98137
O         23.33222       21.89521       -4.30398
C         22.98554       20.92349       -1.53762
C         23.18092       19.44198       -1.41614
O         23.41210       18.77646       -2.40040
O         23.05982       18.83311       -0.22214
H         20.71375       19.48845       -2.42623
H         21.64349       22.38493       -2.35562
H         22.72727       21.29897       -0.52665
H         23.93943       21.40715       -1.84416
N         21.79756       20.39737       -4.90914
C         22.21607       20.26060       -6.30893
C         23.57174       19.59311       -6.54363
O         23.98582       19.51932       -7.69191
H         20.97686       19.89369       -4.60989
H         22.21420       21.26672       -6.77985
H         21.46657       19.63836       -6.84672
N         24.32228       19.10016       -5.52195
C         25.68120       18.56841       -5.65730
C         25.81144       17.20302       -6.36087
O         26.92716       16.70482       -6.42736
C         26.35557       18.53140       -4.26412
C         25.79722       17.52622       -3.30078
N         26.34757       17.40609       -2.07836
O         24.85242       16.81854       -3.60502
H         23.94748       19.20500       -4.58100
H         26.27666       19.30878       -6.23357
H         26.27327       19.53857       -3.79717
H         27.43377       18.30242       -4.39106
H         27.13350       18.00117       -1.78174
H         25.98574       16.70094       -1.43669
N         24.75825       16.54938       -6.93249
C         24.89457       15.28707       -7.65814
C         25.08939       14.04120       -6.80205
O         25.20310       12.97156       -7.38335
H         23.83871       17.00253       -6.95010
H         25.72183       15.37852       -8.39532
H         23.95834       15.10944       -8.22961
N         25.11466       14.07755       -5.44075
C         25.22537       12.89185       -4.58868
C         24.06539       12.81592       -3.60227
O         23.28855       13.75249       -3.50335
C         26.58043       12.92064       -3.82080
C         27.74481       12.65588       -4.77473
O         26.80381       14.15702       -3.18487
H         25.04399       14.98379       -4.97778
H         25.17666       11.96053       -5.19377
H         26.61521       12.10753       -3.06268
H         25.98107       14.41032       -2.69474
H         27.80436       13.44093       -5.55679
H         28.69943       12.64415       -4.20617
H         27.62040       11.66397       -5.26058
N         23.93541       11.72614       -2.79062
C         22.96795       11.63496       -1.70338
C         23.71794       11.92307       -0.42848
O         24.74736       11.31563       -0.16550
C         22.25345       10.25218       -1.65810
C         21.38836       10.07293       -2.92926
C         21.36748       10.13156       -0.39084
C         20.77175        8.67968       -3.06513
H         24.62841       10.96665       -2.87278
H         22.17497       12.40600       -1.81021
H         23.03210        9.45899       -1.61273
H         22.01534       10.24120       -3.82937
H         20.57257       10.83009       -2.93014
H         21.96140       10.27127        0.53542
H         20.55399       10.88814       -0.40333
H         20.91525        9.12477       -0.30185
H         21.57383        7.91389       -3.11601
H         20.08737        8.44181       -2.22647
H         20.17614        8.63558       -4.00084
N         23.21254       12.84674        0.42634
C         23.84165       13.25001        1.66747
C         23.10394       12.57487        2.81277
O         22.04509       12.04067        2.55625
C         23.79149       14.79039        1.73333
C         24.42629       15.43398        0.51662
O         23.95701       15.21063       -0.75232
O         25.43663       16.09491        0.68854
H         22.30048       13.26472        0.20904
H         24.89240       12.88571        1.69273
H         24.30811       15.12351        2.65928
H         22.73920       15.14225        1.77918
N         23.61712       12.45672        4.07293
C         22.94494       11.65127        5.10414
C         21.49909       12.10383        5.36557
O         20.63353       11.25208        5.22212
C         23.77249       11.55415        6.40420
C         22.99423       10.80927        7.46843
C         22.71958        9.43367        7.34823
C         22.48801       11.51443        8.57294
C         21.94892        8.78275        8.31961
C         21.70942       10.86361        9.53185
C         21.43960        9.49920        9.40658
H         24.53583       12.87807        4.27760
H         22.87877       10.60511        4.72172
H         24.01741       12.56779        6.75885
H         24.74636       11.04966        6.21773
H         23.09593        8.86696        6.50554
H         22.67280       12.57585        8.67726
H         21.73712        7.72496        8.22683
H         21.30833       11.42186       10.36747
H         20.83225        8.99961       10.15034
N         21.12343       13.37368        5.72806
C         19.72965       13.80615        5.85129
C         18.83139       13.30561        4.73193
O         17.74675       12.80326        4.98590
C         19.84056       15.33722        5.76314
C         21.12976       15.58805        6.50073
C         22.02956       14.48720        5.94192
H         19.33353       13.49782        6.84392
H         20.02159       15.65695        4.71012
H         18.95338       15.88638        6.14348
H         21.54673       16.61377        6.41123
H         20.92941       15.37671        7.57639
H         22.48654       14.77082        4.96982
H         22.80806       14.29235        6.69965
N         19.26274       13.41838        3.45376
C         18.50488       13.04270        2.26626
C         18.20354       11.55261        2.25833
O         17.06659       11.17640        2.01469
C         19.29429       13.45741        1.01339
C         19.59097       14.97801        1.03914
C         20.37943       15.44003       -0.12089
O         20.67462       14.67694       -1.02292
O         20.79733       16.71756       -0.14337
H         20.21240       13.79379        3.33585
H         17.54963       13.61268        2.23040
H         18.71174       13.20270        0.10185
H         20.24310       12.89117        0.97065
H         20.20666       15.26444        1.90964
H         18.64955       15.56180        1.08341
N         19.17535       10.65293        2.57168
C         18.99007        9.22277        2.65181
H         17.97274        8.91134        2.34475
H         19.73870        8.72164        2.00288
H         19.16678        8.89932        3.70066
H         20.09916       10.99464        2.82126
Ca        22.40299       16.25532       -2.20648
O         22.28777       15.99911       -5.39892
H         22.16276       15.02156       -5.43802
H         21.70725       16.35222       -6.11919
O         20.54017       13.78641       -3.88851
H         19.81260       13.50417       -4.49499
H         20.32441       13.34406       -3.03322

Ca 1.0



