%chk=holoCaM.loop3.water1.frame9.chk
%nprocshared=20
%mem=10GB
%nosave
#b3lyp/svp scf=(tight,noincore,xqc) Test 
#IOP(5/87=12) Density=Current Pop=(MK,readradii) iop(6/33=2) iop(6/42=6)

holoCaM.loop3.water1.frame9 

   0  1 
C         75.14213       44.84586       52.99462
C         74.71861       45.85784       51.97740
O         74.49163       46.99849       52.35634
H         76.06789       45.20372       53.49343
H         74.34228       44.72687       53.75463
H         75.34831       43.86187       52.52601
N         74.57838       45.51550       50.66348
C         74.22381       46.48318       49.63867
C         72.80958       46.19503       49.14138
O         72.53688       45.10115       48.66747
C         75.28429       46.47694       48.51620
C         75.14597       47.71139       47.67320
O         73.96356       47.97979       47.11048
O         76.06525       48.50464       47.57461
H         74.72569       44.53500       50.37814
H         74.24512       47.50393       50.07892
H         75.19009       45.55582       47.90078
H         76.30154       46.49169       48.96614
N         71.85239       47.15637       49.26512
C         70.43545       47.00195       48.93829
C         70.20103       46.62421       47.48227
O         69.53130       45.62964       47.24009
C         69.71484       48.32657       49.27977
C         68.19518       48.29596       49.06914
C         67.59551       49.65882       49.44282
C         66.08585       49.70714       49.18447
N         65.54635       51.02519       49.52040
H         72.14791       48.05892       49.66254
H         70.00520       46.20676       49.58876
H         70.14955       49.14336       48.66152
H         69.90931       48.56155       50.35062
H         67.74192       47.49967       49.70009
H         67.97208       48.08086       48.00205
H         68.08421       50.44876       48.83098
H         67.79357       49.86911       50.51752
H         65.57342       48.93075       49.79480
H         65.89071       49.49727       48.10927
H         64.52295       51.04262       49.30797
H         65.68598       51.22283       50.53801
H         66.02056       51.76422       48.95137
N         70.71647       47.37149       46.46479
C         70.47195       47.09164       45.04843
C         71.68498       46.44194       44.37883
O         71.63723       46.20734       43.17924
C         69.97411       48.37564       44.32727
C         71.02371       49.44801       44.23416
O         71.21382       50.27579       45.27477
O         71.92186       49.32283       43.41943
H         71.33366       48.15543       46.71055
H         69.65067       46.34862       44.94570
H         69.08533       48.77222       44.86460
H         69.64709       48.12331       43.29527
N         72.76518       46.03214       45.10864
C         73.87332       45.26585       44.56390
C         74.81408       46.01079       43.64033
O         75.73697       45.36186       43.16575
H         72.76037       46.15221       46.12740
H         73.46494       44.37614       44.03561
H         74.49322       44.89327       45.40859
N         74.68352       47.33300       43.31579
C         75.60177       47.96080       42.36524
C         77.03960       48.07638       42.88368
O         77.90484       48.38247       42.07542
C         75.10561       49.33807       41.85271
C         75.04723       50.44721       42.87398
N         74.85495       51.72395       42.47000
O         75.18570       50.20914       44.05993
H         73.89748       47.87384       43.69519
H         75.61805       47.30376       41.46596
H         74.10373       49.23791       41.38178
H         75.81418       49.65987       41.05893
H         74.75269       51.94946       41.47007
H         74.84041       52.49480       43.15326
N         77.37136       47.89440       44.20016
C         78.74055       48.01049       44.70210
C         78.95685       49.22877       45.59179
O         80.07778       49.42429       46.04012
H         76.63244       47.68979       44.88756
H         79.46183       48.10535       43.86197
H         78.99849       47.08095       45.25237
N         77.95813       50.12192       45.83600
C         78.10884       51.39135       46.53933
C         77.10830       51.49694       47.67537
O         75.91942       51.32672       47.43981
C         77.83964       52.52828       45.53324
C         78.97657       52.68866       44.55529
C         78.82704       52.36259       43.19750
C         80.20471       53.20124       45.00750
C         79.89354       52.54732       42.30886
C         81.26204       53.39702       44.11754
C         81.11025       53.07104       42.76328
O         82.12203       53.26182       41.89254
H         77.03218       49.93562       45.44438
H         79.13332       51.51880       46.95290
H         77.72099       53.50238       46.05652
H         76.88084       52.32030       45.00765
H         77.89170       51.96221       42.82729
H         80.33612       53.46873       46.04895
H         79.77271       52.29044       41.26411
H         82.19564       53.80751       44.48190
H         82.97133       53.63781       42.16636
N         77.52133       51.84819       48.92825
C         76.61667       52.03257       50.05880
C         76.58669       53.50421       50.44323
O         77.59475       54.04349       50.87944
C         77.04666       51.10645       51.23910
C         76.77540       49.63163       50.84224
C         76.33038       51.46596       52.55760
C         77.22569       48.60590       51.88127
H         78.52418       52.03509       49.08534
H         75.58000       51.75518       49.77624
H         78.13520       51.25267       51.41977
H         77.31378       49.40336       49.89845
H         75.68673       49.49143       50.66169
H         76.54301       52.51432       52.85020
H         75.24001       51.32316       52.46927
H         76.70325       50.84914       53.39840
H         78.31209       48.70752       52.07920
H         76.66093       48.71297       52.82971
H         77.02794       47.58575       51.49173
N         75.42428       54.20748       50.30937
C         75.24352       55.58601       50.75413
C         74.92468       55.61801       52.24131
O         74.86192       54.56907       52.85829
C         74.08949       56.23439       49.95819
O         72.87102       55.58018       50.20951
H         74.60755       53.72417       49.90765
H         76.16117       56.17656       50.53998
H         74.33999       56.21753       48.87140
H         73.96999       57.30347       50.22986
H         72.59235       55.12719       49.37161
N         74.66748       56.79392       52.87848
C         74.20391       56.86726       54.26313
C         72.85551       56.17787       54.41419
O         72.69359       55.38053       55.32680
C         74.06949       58.32915       54.70024
H         74.76565       57.67125       52.34561
H         74.95037       56.39612       54.94225
H         73.73365       58.37893       55.75904
H         75.05572       58.83493       54.62639
H         73.33736       58.87111       54.06499
N         71.85124       56.42655       53.52270
C         70.52162       55.81885       53.58404
C         70.59842       54.30577       53.67447
O         70.02962       53.74025       54.59792
C         69.70366       56.22831       52.35150
H         72.05531       57.07036       52.74223
H         69.99063       56.19864       54.48520
H         68.68322       55.79258       52.40172
H         69.61017       57.33448       52.30755
H         70.19515       55.87976       51.41733
N         71.33083       53.59261       52.77611
C         71.52353       52.14522       52.85528
C         72.07859       51.75964       54.21797
O         71.47552       50.93344       54.88916
C         72.47563       51.67732       51.73348
C         71.81776       51.76201       50.34850
C         72.78882       51.38430       49.26841
O         73.04357       52.17232       48.37267
O         73.38636       50.17925       49.28018
H         71.81829       54.11824       52.03665
H         70.55034       51.61978       52.72643
H         72.76334       50.61589       51.90596
H         73.39104       52.30552       51.75371
H         71.44655       52.79044       50.15507
H         70.95260       51.06551       50.31525
N         73.19942       52.34789       54.71020
C         73.72872       52.04448       56.02084
H         74.61525       52.68260       56.22571
H         72.96132       52.25218       56.79744
H         74.03344       50.97877       56.06992
H         73.67571       53.05894       54.15072
Ca        73.21598       49.87406       46.18271
O         73.89741       52.81498       45.56592
H         73.19595       53.42914       45.23338
H         74.52402       53.39661       46.06495

Ca 1.0



