%chk=holoCaM.loop1.water2.frame45.chk
%nprocshared=20
%mem=10GB
%nosave
#b3lyp/svp scf=(tight,noincore,xqc) Test 
#IOP(5/87=12) Density=Current Pop=(MK,readradii) iop(6/33=2) iop(6/42=6)

holoCaM.loop1.water2.frame45 

   0  1 
C        -13.54442       85.74062       25.86661
C        -14.04187       87.10686       26.21435
O        -13.24954       87.94467       26.61979
H        -12.45521       85.66023       26.06837
H        -14.07830       84.98397       26.47975
H        -13.73154       85.54487       24.79099
N        -15.36898       87.38965       26.11675
C        -15.92917       88.67911       26.47922
C        -16.59076       88.54601       27.84060
O        -17.45113       87.69344       28.01025
C        -16.87042       89.17521       25.36687
C        -17.37952       90.52915       25.72735
O        -18.57555       90.72597       25.82953
O        -16.49690       91.49755       26.03443
H        -16.01722       86.63746       25.83384
H        -15.11463       89.43136       26.56883
H        -17.71801       88.46888       25.21740
H        -16.30547       89.25638       24.41348
N        -16.17761       89.33573       28.87779
C        -16.58474       89.14361       30.26671
C        -17.56531       90.20217       30.77065
O        -18.06185       90.00925       31.87218
C        -15.32218       89.07692       31.17782
C        -14.62803       87.70027       31.22387
C        -14.05493       87.17890       29.89755
C        -13.43640       85.77227       30.03523
N        -14.43719       84.75190       30.36819
H        -15.49779       90.08266       28.68359
H        -17.15662       88.19646       30.37220
H        -15.62871       89.25507       32.23118
H        -14.60718       89.88979       30.91464
H        -15.38031       86.98909       31.61553
H        -13.79301       87.75811       31.95834
H        -13.26956       87.88242       29.54565
H        -14.84465       87.11459       29.13039
H        -12.63176       85.77697       30.80343
H        -12.97430       85.50191       29.06004
H        -14.83848       84.90795       31.31909
H        -15.20271       84.75058       29.65501
H        -13.98088       83.81152       30.36953
N        -17.92598       91.30997       30.05821
C        -18.96168       92.24913       30.52136
C        -20.04050       92.52720       29.45840
O        -20.93592       93.31375       29.73218
C        -18.31764       93.52940       31.09258
C        -17.40595       94.17921       30.11290
O        -17.88187       94.54050       28.91337
O        -16.21190       94.25289       30.34996
H        -17.44027       91.50986       29.17271
H        -19.51697       91.81916       31.38294
H        -17.72781       93.24541       31.99341
H        -19.10483       94.24246       31.41796
N        -20.07805       91.85652       28.27159
C        -21.18081       91.93729       27.31975
C        -21.27392       93.21147       26.50183
O        -22.33879       93.81032       26.45916
H        -19.36195       91.14582       28.08123
H        -22.14010       91.73071       27.84190
H        -21.04654       91.12437       26.57381
N        -20.22609       93.61094       25.73068
C        -20.30643       94.62839       24.68002
C        -19.90687       94.03966       23.31551
O        -19.86513       94.78377       22.34524
C        -19.43556       95.85382       25.02989
C        -18.03545       95.51126       25.42934
O        -17.54272       95.98626       26.58768
O        -17.34257       94.80033       24.72482
H        -19.33099       93.11690       25.84375
H        -21.34448       95.01017       24.56257
H        -19.90033       96.40686       25.87373
H        -19.40952       96.54380       24.15831
N        -19.61484       92.71456       23.16003
C        -19.19160       92.10480       21.91178
C        -17.85558       92.63027       21.44177
O        -17.73265       92.91744       20.26139
H        -19.70074       92.07127       23.95489
H        -19.97079       92.22647       21.12638
H        -19.06610       91.01443       22.09047
N        -16.79460       92.70353       22.29922
C        -15.42883       93.10129       21.91878
C        -14.41496       92.74947       23.02060
O        -14.79977       92.33071       24.10343
C        -15.27389       94.61985       21.56128
C        -15.97760       95.11334       20.28835
O        -15.60885       95.43418       22.65330
H        -16.97363       92.38198       23.26260
H        -15.13227       92.48200       21.04341
H        -14.20171       94.79692       21.34093
H        -16.58865       95.58522       22.62266
H        -15.66548       96.15910       20.08351
H        -15.69022       94.48405       19.41983
H        -17.07795       95.14101       20.40606
N        -13.07562       92.84982       22.77544
C        -12.03053       92.44655       23.71469
C        -11.10556       93.63113       24.00780
O        -10.57438       94.22803       23.08173
C        -11.27780       91.20872       23.13356
C        -12.27655       90.01853       23.00526
C        -10.08181       90.80894       24.01845
C        -11.68324       88.74816       22.39487
H        -12.76763       93.16666       21.84354
H        -12.46789       92.11152       24.67426
H        -10.88157       91.47475       22.12915
H        -13.12605       90.31784       22.35617
H        -12.68752       89.76286       24.00857
H         -9.37285       91.65261       24.13845
H        -10.43100       90.47821       25.01376
H         -9.50196       89.98414       23.55885
H        -12.47986       87.97805       22.31058
H        -11.28200       88.95929       21.38217
H        -10.88426       88.32252       23.03480
N        -10.83465       93.97799       25.30157
C         -9.93281       95.05556       25.73083
C         -8.67653       94.45354       26.34990
O         -8.50738       93.25503       26.25516
C        -10.67003       96.00416       26.71385
C        -11.78996       96.77977       26.01265
O        -11.14156       95.30572       27.84174
H        -11.25380       93.40016       26.04388
H         -9.58502       95.66145       24.86562
H         -9.97944       96.78887       27.08118
H        -11.97707       94.83430       27.58996
H        -11.36457       97.40631       25.19977
H        -12.51717       96.08432       25.56285
H        -12.30729       97.44478       26.73665
N         -7.72301       95.21591       26.95908
C         -6.45235       94.67245       27.45220
C         -6.63528       93.51894       28.43430
O         -6.07259       92.45896       28.19679
C         -5.56303       95.77356       28.09111
C         -5.14861       96.85077       27.08409
O         -6.21761       96.38909       29.17261
H         -7.89019       96.22617       27.04999
H         -5.88505       94.26965       26.58231
H         -4.61052       95.29778       28.43155
H         -5.86997       95.97433       30.00544
H         -4.46940       97.57830       27.57715
H         -4.60844       96.38994       26.23020
H         -6.02382       97.40966       26.69550
N         -7.39208       93.65156       29.55867
C         -7.53096       92.59917       30.56708
C         -8.05996       91.31524       29.96443
O         -7.46189       90.26693       30.16351
C         -8.44113       93.09576       31.71111
C         -8.53337       92.09270       32.87413
C         -9.14922       92.75644       34.11257
C         -9.13690       91.81266       35.32270
N         -9.50076       92.53200       36.54371
H         -7.88470       94.54527       29.70759
H         -6.52976       92.39612       31.01015
H         -9.46230       93.34098       31.34178
H         -7.97752       94.03076       32.09510
H         -7.50401       91.77269       33.14555
H         -9.11595       91.19435       32.57014
H        -10.18777       93.09813       33.90610
H         -8.52707       93.64331       34.36191
H         -8.11476       91.39391       35.45746
H         -9.84101       90.96836       35.15001
H         -8.80225       93.29044       36.72583
H        -10.45528       92.94853       36.45496
H         -9.48474       91.86930       37.35205
N         -9.17149       91.34185       29.18895
C         -9.76564       90.16129       28.56719
C         -8.72835       89.43923       27.70996
O         -8.45554       88.27525       27.96873
C        -11.02564       90.59360       27.78103
C        -12.10787       91.13319       28.75130
C        -13.31282       91.73230       28.08544
O        -13.42172       91.76395       26.87279
O        -14.27983       92.27450       28.84955
H         -9.59264       92.26722       29.01671
H        -10.09442       89.44978       29.35741
H        -11.44514       89.73594       27.21527
H        -10.73560       91.38702       27.06221
H        -11.69287       91.93620       29.39064
H        -12.44024       90.30682       29.41444
N         -8.05584       90.08718       26.72483
C         -6.97010       89.49017       25.97756
H         -6.15481       89.19320       26.67280
H         -7.32586       88.60520       25.41276
H         -6.55370       90.23270       25.26129
H         -8.29240       91.05518       26.52582
Ca       -17.07295       93.28044       27.24979
O        -14.77446       95.11133       25.92375
H        -14.86850       96.07938       26.11231
H        -14.52856       95.07264       24.96652
O        -14.20422       95.43463       28.83124
H        -13.61667       96.23011       28.84449
H        -15.09832       95.79424       28.60517

Ca 1.0



