%chk=holoCaM.loop3.water2.frame400.chk
%nprocshared=20
%mem=10GB
%nosave
#b3lyp/svp scf=(tight,noincore,xqc) Test 
#IOP(5/87=12) Density=Current Pop=(MK,readradii) iop(6/33=2) iop(6/42=6)

holoCaM.loop3.water2.frame400 

   0  1 
C         70.50530       73.87586       89.45726
C         70.22489       74.08447       90.91386
O         69.71071       73.18313       91.56175
H         71.59449       73.99128       89.27066
H         70.19726       72.85709       89.13942
H         69.94980       74.62691       88.85907
N         70.57723       75.25556       91.51025
C         70.39726       75.48392       92.93570
C         68.91821       75.60899       93.27762
O         68.26302       76.51845       92.78717
C         71.16927       76.73645       93.36757
C         71.22961       76.88726       94.85742
O         71.86076       77.81072       95.32376
O         70.63972       76.00696       95.68887
H         71.04883       75.97385       90.93744
H         70.86461       74.62491       93.46913
H         70.72242       77.64554       92.90591
H         72.21918       76.64717       93.01110
N         68.32534       74.69476       94.09328
C         66.89494       74.69149       94.39088
C         66.49669       75.88660       95.25772
O         65.84649       76.78706       94.74599
C         66.46524       73.34435       95.02991
C         66.77309       72.15551       94.09829
C         66.34521       70.81523       94.70393
C         66.70590       69.66636       93.74925
N         66.28239       68.37555       94.28782
H         68.91377       73.92827       94.43447
H         66.35499       74.76889       93.42030
H         65.37259       73.37126       95.23192
H         66.99241       73.18143       95.99316
H         67.86250       72.09867       93.89428
H         66.24323       72.30550       93.13295
H         65.24842       70.82518       94.88266
H         66.86401       70.65843       95.67522
H         67.80736       69.65137       93.58627
H         66.21058       69.83070       92.76644
H         66.55007       67.62207       93.61372
H         66.75324       68.19413       95.20376
H         65.24405       68.36392       94.41227
N         66.81650       75.95050       96.58525
C         66.44882       77.08387       97.44829
C         67.22786       78.37364       97.12405
O         66.91962       79.40096       97.71239
C         66.61140       76.72828       98.95337
C         68.01279       76.34962       99.32304
O         68.32770       76.18554      100.49098
O         68.91925       76.18103       98.35214
H         67.28592       75.13550       97.00166
H         65.36651       77.29036       97.30052
H         65.94070       75.88692       99.23002
H         66.31301       77.61343       99.55722
N         68.23811       78.40098       96.20771
C         68.96356       79.59909       95.80833
C         69.78161       80.24421       96.90985
O         69.74226       81.46343       97.00640
H         68.49984       77.53520       95.72131
H         68.25769       80.34414       95.37563
H         69.66626       79.32123       94.99652
N         70.59442       79.51704       97.73655
C         71.41884       80.15065       98.77129
C         72.82054       80.50943       98.26471
O         73.58307       81.08790       99.02494
C         71.43157       79.29642      100.07092
C         72.49297       78.18556      100.16841
N         72.21933       77.25613      101.25805
O         72.73504       77.49281       98.99044
H         70.59283       78.49084       97.65255
H         70.91142       81.09520       99.06929
H         70.40910       78.89496      100.24279
H         71.66939       79.96254      100.92860
H         72.30606       77.76920      102.16280
H         72.95012       76.50758      101.24907
N         73.23533       80.16800       97.00506
C         74.57139       80.40819       96.47390
C         75.39224       79.12680       96.34967
O         76.54758       79.21910       95.96062
H         72.58787       79.68351       96.38361
H         75.13913       81.08396       97.14658
H         74.48298       80.91216       95.48679
N         74.90049       77.91910       96.75326
C         75.70120       76.70897       96.92582
C         74.96888       75.49028       96.38208
O         73.80959       75.30310       96.73079
C         75.91639       76.49216       98.44478
C         76.65474       77.64598       99.09054
C         76.00523       78.47523      100.01874
C         77.99846       77.90498       98.77629
C         76.66990       79.55028      100.60867
C         78.67186       78.97468       99.37914
C         78.00575       79.80414      100.29448
O         78.63650       80.84204      100.87944
H         73.93658       77.87663       97.08842
H         76.70512       76.80346       96.45821
H         76.48594       75.55592       98.63198
H         74.92592       76.36387       98.92853
H         74.98244       78.30031      100.28457
H         78.52615       77.27389       98.07319
H         76.14399       80.18402      101.31272
H         79.70963       79.15830       99.13418
H         79.56291       81.05174      100.69633
N         75.61963       74.55038       95.63275
C         75.01121       73.26886       95.27720
C         75.60186       72.20167       96.19007
O         76.77101       71.86357       96.06419
C         75.18353       72.94828       93.75817
C         74.36444       73.96195       92.91540
C         74.75983       71.49950       93.43018
C         74.51282       73.78558       91.40105
H         76.61932       74.69031       95.41960
H         73.91908       73.29381       95.48167
H         76.26322       73.03779       93.50413
H         74.69397       74.99260       93.16528
H         73.28555       73.87198       93.17177
H         75.34759       70.76840       94.02020
H         73.68256       71.34757       93.62980
H         74.96555       71.24794       92.37102
H         73.92170       74.56799       90.88023
H         75.57782       73.88183       91.10326
H         74.12056       72.80536       91.06115
N         74.82251       71.65654       97.16784
C         75.24652       70.60214       98.08541
C         75.39528       69.27781       97.35270
O         75.18221       69.22682       96.15688
C         74.20199       70.45457       99.21694
O         72.95551       70.04909       98.71400
H         73.87611       72.03397       97.28536
H         76.20759       70.89235       98.56133
H         74.11385       71.41670       99.77161
H         74.52701       69.70992       99.97128
H         72.37189       70.85067       98.68568
N         75.72597       68.14410       98.03234
C         75.74434       66.82225       97.41093
C         74.35579       66.43822       96.91814
O         74.21994       66.04950       95.76533
C         76.23153       65.77776       98.42093
H         75.94129       68.21902       99.03648
H         76.46563       66.81372       96.56337
H         76.27053       64.77549       97.94258
H         77.25548       66.03924       98.76381
H         75.56019       65.73050       99.30443
N         73.27472       66.54193       97.74415
C         71.90972       66.17130       97.37038
C         71.45082       66.88245       96.11088
O         71.03505       66.22104       95.17088
C         70.94477       66.50236       98.51871
H         73.43450       66.91593       98.69380
H         71.86565       65.07328       97.19508
H         71.24016       65.95290       99.43738
H         70.95483       67.59152       98.74352
H         69.90791       66.20642       98.25087
N         71.51808       68.23781       96.02638
C         71.11086       69.00650       94.85154
C         71.86562       68.52272       93.62175
O         71.23372       68.23122       92.61529
C         71.31135       70.52209       95.11244
C         70.37331       71.00751       96.24057
C         70.53010       72.46532       96.56632
O         71.71580       72.95898       96.95499
O         69.55949       73.19988       96.55848
H         71.91336       68.73728       96.83300
H         70.02541       68.85476       94.65805
H         71.07443       71.09331       94.18732
H         72.37011       70.71487       95.39155
H         70.57205       70.44761       97.17301
H         69.31984       70.81100       95.94609
N         73.20882       68.32427       93.66106
C         73.95258       67.76455       92.55349
H         75.01704       67.62851       92.84418
H         73.53951       66.76770       92.28442
H         73.90138       68.44080       91.67613
H         73.71239       68.52500       94.52756
Ca        71.06389       76.07880       98.70864
O         69.83364       73.26049       99.64530
H         69.92409       72.27451       99.64443
H         68.89420       73.42462       99.90971
O         72.92135       73.85645       99.81880
H         73.76854       74.16599      100.22661
H         72.49614       73.30241      100.52083

Ca 1.0



