%chk=holoCaM.loop3.water1.frame498.chk
%nprocshared=20
%mem=10GB
%nosave
#b3lyp/svp scf=(tight,noincore,xqc) Test 
#IOP(5/87=12) Density=Current Pop=(MK,readradii) iop(6/33=2) iop(6/42=6)

holoCaM.loop3.water1.frame498 

   0  1 
C         86.80609       56.64645       11.17983
C         87.60944       55.38368       11.16014
O         88.68867       55.39189       10.58420
H         85.85517       56.51305       11.73558
H         87.39773       57.44798       11.67005
H         86.57367       56.95029       10.13775
N         87.14605       54.25215       11.76720
C         87.89596       53.00712       11.78671
C         87.10021       51.94280       11.03058
O         86.00850       51.59009       11.45472
C         88.18712       52.61824       13.25131
C         89.17943       51.50638       13.36049
O         89.79771       51.05563       12.26218
O         89.44855       51.03016       14.44717
H         86.22679       54.27247       12.23516
H         88.87259       53.16324       11.27883
H         87.23579       52.32907       13.74849
H         88.61612       53.48376       13.79760
N         87.55931       51.46888        9.83717
C         86.77400       50.62699        8.93446
C         86.57416       49.19635        9.42142
O         85.63366       48.56808        8.95493
C         87.40790       50.60239        7.52198
C         87.48680       52.01105        6.89865
C         88.12648       51.98299        5.50697
C         88.20863       53.40210        4.92460
N         88.80929       53.39131        3.59201
H         88.45169       51.83870        9.49840
H         85.76851       51.09471        8.83348
H         86.79118       49.96195        6.85307
H         88.42824       50.16198        7.58595
H         88.09408       52.68703        7.53465
H         86.46047       52.43237        6.82370
H         87.51980       51.33876        4.83413
H         89.15287       51.56036        5.57997
H         88.82189       54.04483        5.59610
H         87.18635       53.83739        4.86102
H         89.78160       53.00884        3.63853
H         88.23000       52.81136        2.94242
H         88.84781       54.37074        3.22757
N         87.43629       48.58729       10.28663
C         87.26810       47.20384       10.75160
C         87.11767       47.12700       12.27016
O         86.91817       46.03188       12.77710
C         88.40831       46.30726       10.20312
C         89.76621       46.84657       10.52626
O         90.15300       46.98713       11.80155
O         90.47455       47.28386        9.63256
H         88.25865       49.11580       10.61471
H         86.32763       46.76896       10.34791
H         88.30324       46.27957        9.09579
H         88.31212       45.26532       10.57667
N         87.13622       48.24349       13.05572
C         86.86114       48.23001       14.48088
C         87.86852       47.44731       15.28670
O         87.46190       46.56895       16.03454
H         87.28818       49.17005       12.63621
H         85.83549       47.83406       14.65584
H         86.87987       49.27776       14.85302
N         89.19732       47.74755       15.22462
C         90.19806       47.15062       16.10661
C         90.91589       48.22457       16.93557
O         91.88699       47.89382       17.60035
C         91.19019       46.25248       15.32072
C         92.16253       46.94583       14.40282
N         93.12219       46.23619       13.76910
O         92.11507       48.14804       14.24423
H         89.50618       48.46043       14.54867
H         89.71207       46.45630       16.82710
H         90.61665       45.49824       14.73836
H         91.80280       45.70511       16.06919
H         93.19877       45.21796       13.90121
H         93.80443       46.71228       13.16065
N         90.46759       49.51869       16.98766
C         91.11388       50.56212       17.77569
C         92.36448       51.14986       17.13638
O         93.00940       51.95769       17.79215
H         89.58102       49.76595       16.53191
H         91.34231       50.15750       18.78618
H         90.40561       51.40686       17.91225
N         92.77321       50.81105       15.88012
C         94.00850       51.28290       15.25580
C         93.74666       51.88590       13.88322
O         93.17524       51.21615       13.03125
C         94.98690       50.09807       15.13454
C         95.36687       49.59174       16.50648
C         95.00265       48.30207       16.92555
C         96.08071       50.42289       17.38855
C         95.33329       47.85941       18.21111
C         96.41211       49.97821       18.66925
C         96.03539       48.69513       19.08733
O         96.34083       48.25777       20.32545
H         92.20517       50.14739       15.34886
H         94.49859       52.05581       15.88570
H         95.91413       50.41011       14.60607
H         94.50961       49.29389       14.53284
H         94.45162       47.64420       16.26582
H         96.37946       51.41891       17.08674
H         95.03847       46.86741       18.52869
H         96.95787       50.63439       19.33570
H         96.81869       48.80969       20.96136
N         94.17937       53.14724       13.59422
C         94.01464       53.81359       12.30315
C         95.39254       54.13185       11.72492
O         96.21666       54.70626       12.42663
C         93.14634       55.09450       12.47988
C         91.73842       54.69804       13.00729
C         93.03579       55.86614       11.14648
C         90.81864       55.88737       13.28999
H         94.66440       53.67938       14.33509
H         93.47581       53.16123       11.58279
H         93.63869       55.76009       13.22404
H         91.84863       54.14468       13.96440
H         91.23727       54.02385       12.27742
H         92.46807       56.80905       11.27115
H         94.03805       56.16593       10.77831
H         92.54132       55.24346       10.37122
H         89.85821       55.52011       13.70628
H         91.28673       56.56928       14.03000
H         90.58026       56.44826       12.36486
N         95.68603       53.83175       10.42453
C         96.97982       54.08465        9.78740
C         96.91137       55.26140        8.81936
O         95.85063       55.84476        8.66079
C         97.44087       52.80552        9.06503
O         96.52873       52.47398        8.05030
H         94.93934       53.42626        9.84293
H         97.73711       54.35254       10.55651
H         97.49893       51.97038        9.79688
H         98.45014       52.96723        8.62597
H         96.96425       51.77842        7.49277
N         98.03027       55.69979        8.16843
C         98.05118       56.87286        7.28718
C         97.29548       56.69257        5.96820
O         97.21281       57.65392        5.21689
C         99.50038       57.25823        6.96900
H         98.92257       55.22027        8.36844
H         97.59814       57.72521        7.84155
H        100.05635       57.44611        7.91195
H        100.00491       56.44335        6.40686
H         99.53181       58.18873        6.36203
N         96.70964       55.51394        5.62283
C         95.94273       55.30967        4.39493
C         94.47164       55.26277        4.74307
O         93.68135       55.99063        4.15860
C         96.38365       54.00243        3.72676
H         96.77541       54.72326        6.27532
H         96.10154       56.13526        3.66626
H         96.22684       53.13546        4.40526
H         95.79832       53.83046        2.79795
H         97.46079       54.05233        3.46325
N         94.06147       54.46437        5.75946
C         92.70363       54.36969        6.27852
C         92.14496       55.74722        6.60579
O         91.09462       56.09746        6.08577
C         92.78303       53.45569        7.51177
C         91.47096       53.06530        8.17609
C         91.73547       52.04570        9.26045
O         92.86675       51.66977        9.53112
O         90.70821       51.50262        9.91526
H         94.78789       53.90544        6.23045
H         92.05317       53.89022        5.51341
H         93.44033       53.93302        8.26819
H         93.26047       52.50796        7.17170
H         90.80353       52.60458        7.41813
H         90.96873       53.95892        8.60654
N         92.82209       56.60317        7.41691
C         92.36392       57.94789        7.69091
H         91.38174       57.92108        8.20603
H         93.09745       58.47131        8.34189
H         92.27386       58.51847        6.74103
H         93.71076       56.30454        7.82820
Ca        90.79271       49.08437       12.13389
O         94.26691       48.91253       11.35093
H         94.62064       48.00644       11.16643
H         94.99790       49.36884       11.83880

Ca 1.0



