%chk=holoCaM-CaMKII.loop1.water2.frame224.chk
%nprocshared=20
%mem=10GB
%nosave
#b3lyp/svp scf=(tight,noincore,xqc) Test 
#IOP(5/87=12) Density=Current Pop=(MK,readradii) iop(6/33=2) iop(6/42=6)

holoCaM-CaMKII.loop1.water2.frame224 

   0  1 
C         19.18900       37.67176       54.30115
C         18.17800       37.60291       55.40705
O         17.85515       36.51284       55.83997
H         20.13414       37.19414       54.63523
H         18.80400       37.13385       53.40943
H         19.40610       38.72251       54.01592
N         17.61007       38.73215       55.90177
C         16.63447       38.73925       56.98180
C         15.29024       39.11129       56.39088
O         14.77517       40.19144       56.63725
C         17.14730       39.67845       58.09003
C         16.18683       39.80321       59.23169
O         15.80478       38.81549       59.83609
O         15.74834       41.02021       59.59410
H         17.86171       39.63889       55.47855
H         16.51155       37.73244       57.44081
H         17.34677       40.68952       57.67444
H         18.10276       39.27403       58.48348
N         14.68103       38.22438       55.55332
C         13.42872       38.50206       54.85417
C         12.21128       38.59163       55.77257
O         11.15460       38.94912       55.26409
C         13.16454       37.43343       53.76753
C         14.26985       37.40303       52.69554
C         13.92613       36.40495       51.58101
C         14.95687       36.39695       50.43837
N         16.27385       35.92382       50.86972
H         15.16536       37.33299       55.37004
H         13.54025       39.48188       54.33930
H         12.20609       37.67648       53.25783
H         13.06491       36.42990       54.23913
H         15.23696       37.12347       53.15839
H         14.36780       38.41705       52.25044
H         12.94592       36.69558       51.14347
H         13.82854       35.38051       52.00223
H         15.04644       37.41677       50.00213
H         14.57933       35.71814       49.64199
H         16.19364       34.97012       51.29140
H         16.90200       35.86985       50.03553
H         16.70314       36.58442       51.55512
N         12.25045       38.29343       57.10485
C         11.08773       38.41525       57.98700
C         11.26811       39.51161       59.03927
O         10.33044       39.76478       59.77853
C         10.69891       37.04060       58.57036
C         11.83863       36.31618       59.22224
O         12.19350       35.23006       58.79179
O         12.47501       36.85521       60.27459
H         13.13664       37.97203       57.52440
H         10.19610       38.75130       57.41276
H         10.32332       36.40917       57.73417
H          9.86487       37.15817       59.29593
N         12.39620       40.27987       59.08762
C         12.50486       41.49673       59.87489
C         12.46584       41.28305       61.36344
O         11.62210       41.88216       62.01651
H         13.18242       40.07208       58.46649
H         11.69980       42.19843       59.56547
H         13.46779       41.99253       59.63588
N         13.38377       40.48789       61.97907
C         13.48316       40.35264       63.42915
C         14.87589       40.78808       63.92684
O         15.13448       40.66587       65.11539
C         13.10221       38.90440       63.82932
C         14.17948       37.93470       63.48007
O         15.23902       38.00259       64.07080
O         14.05253       37.04611       62.48552
H         14.05304       39.96534       61.39457
H         12.73413       41.00531       63.92750
H         12.15029       38.63994       63.31821
H         12.93316       38.83244       64.92507
N         15.81349       41.32280       63.07836
C         17.12657       41.78832       63.50429
C         18.20830       40.71849       63.52932
O         19.32925       41.06959       63.86937
H         15.56307       41.51995       62.10202
H         17.04647       42.30317       64.48655
H         17.47704       42.55120       62.77457
N         17.97875       39.41554       63.18605
C         19.01595       38.38093       63.21179
C         19.17435       37.68570       61.82905
O         18.05597       37.57805       60.98324
C         18.80193       37.39932       64.39702
C         19.01111       38.10079       65.74250
O         17.53026       36.82863       64.37481
H         17.03031       39.13217       62.91332
H         20.01761       38.82323       63.40255
H         19.57045       36.59254       64.37533
H         17.55628       36.14246       63.66644
H         18.29376       38.93591       65.88007
H         18.87905       37.37482       66.57294
H         20.04741       38.50083       65.80111
N         20.00134       36.46986       61.87015
C         20.14076       35.71351       60.60932
C         20.53038       34.29824       61.00058
O         21.62738       34.09592       61.50359
C         21.19342       36.32863       59.61912
C         20.80130       37.75966       59.16637
C         21.36547       35.41304       58.38590
C         21.84376       38.44986       58.28571
H         20.94013       36.68464       62.27915
H         19.15775       35.66131       60.09714
H         22.17115       36.38315       60.14707
H         20.70086       38.41770       60.04764
H         19.83194       37.72401       58.62510
H         22.16641       35.77889       57.71526
H         21.67805       34.39363       58.68439
H         20.41654       35.34484       57.81382
H         21.50060       39.48113       58.05706
H         22.81378       38.51150       58.82362
H         21.98395       37.92774       57.31950
N         19.65389       33.27138       60.82788
C         19.96785       31.89094       61.18808
C         20.83320       31.25506       60.11006
O         21.08847       31.87953       59.09886
C         18.66996       31.06565       61.39415
C         17.79603       31.63099       62.52256
O         17.94224       30.96147       60.19715
H         18.71894       33.48887       60.46638
H         20.51289       31.88512       62.15744
H         18.94258       30.03581       61.70886
H         17.35609       31.75423       60.09721
H         17.45244       32.64954       62.25972
H         16.90293       30.98733       62.66974
H         18.36716       31.67588       63.47357
N         21.30442       29.98546       60.26210
C         22.05451       29.28760       59.21603
C         21.19813       29.12044       57.96746
O         21.64833       29.50479       56.89439
C         22.58443       27.92544       59.73006
C         23.66946       28.13320       60.79410
O         21.55025       27.14456       60.27344
H         21.10546       29.49764       61.14545
H         22.95206       29.88408       58.93499
H         23.08340       27.38301       58.89143
H         21.18093       26.59100       59.53828
H         24.51654       28.71237       60.36492
H         23.27618       28.68461       61.67352
H         24.06138       27.15270       61.13609
N         19.93430       28.61255       58.03854
C         19.03718       28.48662       56.88718
C         18.93551       29.78759       56.09590
O         19.10865       29.74641       54.88665
C         17.62578       27.96001       57.29096
C         16.90660       28.80002       58.36146
C         15.48053       28.33759       58.66431
C         14.90825       29.18009       59.82025
N         13.50811       28.85545       60.07967
H         19.58921       28.33658       58.96881
H         19.45672       27.72528       56.19074
H         17.72866       26.92492       57.68356
H         16.99726       27.91354       56.37403
H         16.81657       29.84801       58.02783
H         17.48843       28.74043       59.30074
H         15.47167       27.26448       58.95328
H         14.85890       28.47237       57.75201
H         14.98463       30.26404       59.57693
H         15.50812       28.99110       60.73983
H         12.92806       29.10472       59.24589
H         13.40398       27.83841       60.29726
H         13.17729       29.41583       60.89873
N         18.68862       30.97911       56.70861
C         18.56317       32.23625       55.97976
C         19.82890       32.55864       55.20334
O         19.74776       32.70379       53.99027
C         18.19400       33.38529       56.94177
C         16.72003       33.29481       57.38096
C         16.30357       34.46546       58.22791
O         16.86417       34.67068       59.43091
O         15.42928       35.22366       57.83919
H         18.60216       30.99604       57.73232
H         17.73935       32.15083       55.23505
H         18.31259       34.32694       56.38923
H         18.88436       33.41145       57.81379
H         16.53168       32.35633       57.93921
H         16.08487       33.28722       56.46732
N         21.03252       32.68080       55.81958
C         22.24272       32.98385       55.08728
H         23.11050       33.00634       55.77970
H         22.42494       32.20578       54.31483
H         22.14974       33.97657       54.59757
H         21.09708       32.54602       56.83321
Ca        16.11741       36.62466       61.71174
O         15.64448       34.15613       63.48143
H         16.60048       34.13176       63.73312
H         15.24753       34.82257       64.09520
O         14.13462       33.70738       60.94177
H         13.63295       33.47384       60.12150
H         13.51901       33.47651       61.68211

Ca 1.0



