%chk=holoCaM.loop4.water3.frame320.chk
%nprocshared=20
%mem=10GB
%nosave
#b3lyp/svp scf=(tight,noincore,xqc) Test 
#IOP(5/87=12) Density=Current Pop=(MK,readradii) iop(6/33=2) iop(6/42=6)

holoCaM.loop4.water3.frame320 

   -3  1 
C         31.05358       37.20054       80.24652
C         32.09008       38.27330       80.06712
O         31.75509       39.37676       79.66915
H         30.04335       37.56827       79.96631
H         31.30695       36.31733       79.62209
H         31.03363       36.88976       81.31479
N         33.38538       38.00678       80.37662
C         34.46240       38.99275       80.34836
C         34.72150       39.56734       78.95336
O         34.98199       38.81307       78.02697
C         35.74089       38.33774       80.90855
C         36.88098       39.30259       80.98657
O         37.92597       39.06275       80.40342
O         36.75444       40.43366       81.70490
H         33.60151       37.05264       80.70939
H         34.19180       39.81999       81.04252
H         36.02692       37.46531       80.28005
H         35.53573       37.97276       81.93914
N         34.73446       40.92424       78.77516
C         35.04870       41.61605       77.51912
C         36.35517       42.42382       77.63562
O         36.90865       42.77733       76.60333
C         33.87054       42.59727       77.17130
C         32.52717       41.83677       77.03841
C         34.13887       43.44683       75.90543
C         31.30937       42.76771       76.96188
H         34.52010       41.50676       79.59315
H         35.18730       40.87057       76.70438
H         33.77752       43.30280       78.02861
H         32.37410       41.20900       77.93745
H         32.55112       41.16776       76.15067
H         34.26154       42.79840       75.01277
H         33.32289       44.17051       75.71844
H         35.03452       44.08684       76.02223
H         30.38067       42.16048       76.93715
H         31.27520       43.42615       77.85804
H         31.31731       43.39536       76.04821
N         36.84663       42.83857       78.84158
C         37.91861       43.83190       78.99106
C         39.14602       43.33712       79.74902
O         40.11332       44.08236       79.83079
C         37.34711       45.08977       79.69606
C         36.79871       44.84166       81.09595
O         36.78109       43.59391       81.62942
O         36.34029       45.78011       81.72766
H         36.37844       42.51020       79.68650
H         38.28385       44.14120       77.98615
H         36.52715       45.50376       79.06633
H         38.14538       45.86342       79.74981
N         39.19352       42.10963       80.32747
C         40.35969       41.58368       81.02072
C         40.75680       42.28463       82.31440
O         41.71317       41.81522       82.91571
H         38.38706       41.48861       80.22548
H         41.22510       41.59008       80.32426
H         40.14993       40.52471       81.28833
N         40.11113       43.37636       82.83144
C         40.52579       43.99955       84.09496
C         40.22719       43.13406       85.32909
O         40.52067       43.58238       86.43016
C         39.94238       45.43338       84.25514
C         38.44773       45.56319       84.32936
O         37.72769       44.59344       84.21719
O         37.89313       46.77697       84.50993
H         39.33656       43.80120       82.30755
H         41.62739       44.16159       84.05312
H         40.29007       46.05707       83.40386
H         40.36091       45.87431       85.18640
N         39.68753       41.88033       85.23857
C         39.42427       41.04143       86.39694
C         38.16087       41.42379       87.14692
O         37.85531       40.74218       88.11525
H         39.50551       41.45682       84.32130
H         40.32220       41.01893       87.05955
H         39.25253       39.99949       86.04698
N         37.35904       42.46207       86.75586
C         36.10985       42.81271       87.42291
C         34.92185       42.83574       86.41400
O         35.04278       41.78063       85.49863
C         36.26497       44.19260       88.09287
C         37.39769       44.20657       89.13038
C         37.49812       45.56149       89.78037
N         38.62232       46.30536       89.66187
O         36.55156       45.99394       90.42165
H         37.63611       43.03922       85.96015
H         35.87803       42.06063       88.21034
H         35.32595       44.47361       88.61024
H         36.47566       44.95593       87.31098
H         38.35926       43.95476       88.63315
H         37.20402       43.44381       89.91618
H         39.43104       45.96222       89.12324
H         38.68231       47.23334       90.10645
N         33.65510       42.71467       87.15910
C         32.39865       42.68381       86.38634
C         31.89314       44.09605       86.05635
O         31.81154       44.93724       86.94007
C         31.34271       41.89726       87.21779
C         29.98460       41.82026       86.49945
C         31.82851       40.46178       87.50024
H         33.57468       43.38042       87.96036
H         32.53708       42.10442       85.44721
H         31.19027       42.41144       88.19267
H         30.08765       41.31300       85.51626
H         29.25480       41.25414       87.11719
H         29.56428       42.83349       86.34266
H         32.78461       40.46429       88.06442
H         31.07993       39.91433       88.11273
H         31.97984       39.90419       86.55013
N         31.43694       44.36814       84.79947
C         30.84265       45.63055       84.34531
C         29.34751       45.41656       84.07186
O         28.86976       44.31403       84.27713
C         31.62196       46.05004       83.07043
C         31.15340       47.29845       82.36911
N         31.15647       48.49691       82.99684
O         30.77425       47.22542       81.20889
H         31.46290       43.60293       84.11465
H         30.93213       46.41715       85.12588
H         31.57693       45.20816       82.34459
H         32.68103       46.20851       83.34372
H         31.47148       48.58060       83.97383
H         30.83249       49.34258       82.50322
N         28.53352       46.42089       83.62398
C         27.12491       46.21284       83.28339
C         26.97767       45.18606       82.17427
O         26.24662       44.22122       82.35326
C         26.43878       47.50740       82.78779
C         26.17973       48.52965       83.86496
C         24.92299       48.55698       84.49553
C         27.14357       49.48874       84.21725
C         24.63435       49.52061       85.46229
C         26.84878       50.45978       85.18249
C         25.59123       50.47863       85.80647
O         25.28758       51.41391       86.72896
H         28.92254       47.36095       83.50413
H         26.56944       45.85207       84.17916
H         25.44043       47.20605       82.39510
H         26.96165       47.97027       81.92145
H         24.16192       47.83054       84.23604
H         28.11169       49.50341       83.73432
H         23.66063       49.52650       85.93622
H         27.59378       51.20261       85.43802
H         25.91101       52.10816       86.98473
N         27.62151       45.35511       80.98341
C         27.44494       44.47029       79.82868
C         27.95077       43.04633       80.05856
O         27.83709       42.23930       79.14561
C         28.16045       45.05424       78.58236
C         27.67522       46.46033       78.17695
C         26.20075       46.49644       77.88973
O         25.72731       45.80563       77.00165
O         25.39416       47.29575       78.61425
H         28.22982       46.18056       80.89071
H         26.35842       44.40925       79.59929
H         27.99180       44.37630       77.71593
H         29.25590       45.09651       78.77159
H         28.22559       46.78012       77.26634
H         27.90800       47.19494       78.97447
N         28.50197       42.65518       81.24007
C         29.03680       41.32981       81.49730
C         28.10189       40.61473       82.45702
O         27.60493       39.54971       82.11434
C         30.46552       41.47506       82.05885
C         31.36179       42.30696       81.11355
C         32.74176       42.54632       81.65883
O         33.51978       43.24767       81.03322
O         33.12697       42.02622       82.83817
H         28.57567       43.32011       82.01348
H         29.09638       40.73082       80.56022
H         30.90888       40.47040       82.22864
H         30.40566       41.99469       83.03524
H         30.90317       43.30513       80.94957
H         31.44085       41.80570       80.12877
N         27.76061       41.17721       83.65190
C         26.79211       40.58526       84.54913
H         25.82059       40.46108       84.01809
H         27.15456       39.59913       84.91424
H         26.62923       41.25970       85.42241
H         28.16623       42.07980       83.92485
Ca        35.90971       42.74893       83.58302
O         33.69921       39.33642       83.81934
H         32.76488       39.62576       83.97314
H         34.09809       39.29750       84.72424
O         34.83254       45.30439       84.34252
H         35.07636       46.26096       84.25582
H         34.63180       44.99354       83.42204
O         37.18898       40.04343       84.41810
H         37.84650       39.44885       83.97722
H         36.68011       39.44971       85.02356

Ca 1.0



