%chk=holoCaM-CaMKII.loop2.water2.frame429.chk
%nprocshared=20
%mem=10GB
%nosave
#b3lyp/svp scf=(tight,noincore,xqc) Test 
#IOP(5/87=12) Density=Current Pop=(MK,readradii) iop(6/33=2) iop(6/42=6)

holoCaM-CaMKII.loop2.water2.frame429 

   -2  1 
C         83.11711       65.99045       15.01545
C         84.57087       66.25780       14.72094
O         84.89954       67.33161       14.24163
H         82.51710       66.04402       14.08466
H         82.97058       64.98345       15.46521
H         82.73873       66.74065       15.74176
N         85.50250       65.31342       15.01286
C         86.94516       65.48961       14.86365
C         87.38344       65.70513       13.41726
O         87.08298       64.87034       12.57532
C         87.63755       64.23582       15.43219
C         89.12428       64.31154       15.33418
O         89.78838       65.32766       15.91462
O         89.73459       63.45013       14.72221
H         85.16255       64.42653       15.41827
H         87.26456       66.35812       15.48130
H         87.28104       63.33272       14.88788
H         87.36749       64.12551       16.50331
N         88.17295       66.77616       13.08735
C         88.73502       66.99684       11.75375
C         90.27502       67.01479       11.73290
O         90.82526       67.09022       10.64311
C         88.20332       68.32714       11.20584
H         88.39817       67.46172       13.82125
H         88.40930       66.18527       11.06801
H         88.52857       69.17015       11.85484
H         88.57770       68.50856       10.17548
H         87.09304       68.31378       11.17571
N         91.03449       67.00482       12.87143
C         92.50315       67.12711       12.89198
C         93.18875       66.09467       13.80769
O         94.40355       66.15558       13.93881
C         92.89067       68.57412       13.29145
C         92.10629       69.04594       14.47120
O         91.34094       69.99005       14.34863
O         92.08233       68.32708       15.60007
H         90.55434       67.01338       13.78048
H         92.93360       66.97352       11.87819
H         92.64152       69.24769       12.44082
H         93.98251       68.66092       13.47411
N         92.49926       65.09648       14.43089
C         93.11329       64.04514       15.24289
C         93.67992       64.46717       16.59863
O         94.23154       63.60663       17.26979
H         91.50080       65.01281       14.23705
H         93.91812       63.56525       14.64373
H         92.34883       63.26624       15.45025
N         93.61487       65.74590       17.06649
C         94.28628       66.19862       18.29173
C         93.62030       65.79439       19.61887
O         94.14602       66.17688       20.65581
C         94.50834       67.72774       18.23769
C         93.26630       68.57639       18.30259
N         93.38286       69.92127       18.26940
O         92.15957       68.06858       18.38336
H         93.18312       66.44835       16.46278
H         95.31511       65.77373       18.28566
H         95.04870       67.97052       17.29608
H         95.16206       68.02278       19.08633
H         94.30793       70.36783       18.19508
H         92.54971       70.51820       18.32123
N         92.50574       65.01173       19.68894
C         91.93161       64.55666       20.95530
C         91.07303       65.56544       21.71600
O         90.56549       65.18317       22.76054
H         92.11551       64.62260       18.82097
H         92.74291       64.16952       21.61110
H         91.25714       63.70071       20.73857
N         90.81932       66.82884       21.26492
C         89.90799       67.76684       21.93718
C         88.75445       68.15041       21.02023
O         88.73901       67.74743       19.86699
C         90.67343       69.04310       22.38188
C         91.63312       68.74871       23.53211
O         91.39188       69.59873       21.30912
H         91.26126       67.13704       20.39318
H         89.44394       67.30255       22.83444
H         89.96848       69.80272       22.79054
H         90.74027       70.08922       20.74363
H         91.06374       68.35891       24.40427
H         92.40035       68.00594       23.23379
H         92.13813       69.68798       23.84538
N         87.76598       68.98087       21.47232
C         86.71165       69.50485       20.61399
C         87.07356       70.94487       20.33181
O         87.00852       71.76919       21.23467
C         85.30893       69.40132       21.29293
C         84.94333       67.93452       21.62713
C         84.22132       70.05398       20.40864
C         83.70486       67.81936       22.52556
H         87.81597       69.33722       22.43827
H         86.68927       68.95056       19.64995
H         85.36331       69.96493       22.25160
H         85.77903       67.46588       22.18832
H         84.78691       67.35610       20.69062
H         83.23430       70.06024       20.91098
H         84.46020       71.11717       20.20410
H         84.13033       69.52004       19.43880
H         83.87515       68.36572       23.47883
H         82.79361       68.21934       22.03872
H         83.51497       66.75249       22.76526
N         87.53040       71.30723       19.10179
C         87.90174       72.68044       18.78786
C         86.65241       73.50290       18.56503
O         85.56396       72.94185       18.55160
C         88.79935       72.73738       17.53679
C         90.09586       72.00947       17.74820
O         90.10400       70.81258       17.98169
O         91.26096       72.68049       17.67511
H         87.65114       70.57758       18.38637
H         88.48444       73.10365       19.63737
H         89.04712       73.79574       17.31532
H         88.27020       72.30528       16.66047
N         86.71958       74.85275       18.40160
C         85.52216       75.64756       18.18118
C         84.92324       75.35058       16.80492
O         83.73100       75.08952       16.75499
C         85.76384       77.15925       18.39001
C         84.45964       77.86974       18.66950
C         83.77684       77.61333       19.87527
C         83.91617       78.78746       17.75770
C         82.57494       78.26152       20.16183
C         82.70548       79.42918       18.04588
C         82.03748       79.16786       19.24677
H         87.63425       75.32332       18.48684
H         84.80168       75.35011       18.97641
H         86.28001       77.60816       17.52306
H         86.40935       77.32508       19.27991
H         84.18167       76.91687       20.60024
H         84.42100       78.99752       16.82361
H         82.06273       78.06046       21.09450
H         82.28385       80.13057       17.33868
H         81.10417       79.66770       19.47048
N         85.67800       75.31375       15.64688
C         85.14407       75.00475       14.31572
C         84.49974       73.62948       14.15826
O         84.03588       73.32900       13.06570
C         86.37494       75.08044       13.39766
C         87.23940       76.09345       14.10913
C         87.08879       75.63406       15.55172
H         84.41424       75.80391       14.05987
H         86.93460       74.11553       13.44384
H         86.14841       75.30044       12.33234
H         88.28992       76.14561       13.75167
H         86.76675       77.09668       14.00201
H         87.67234       74.70454       15.71512
H         87.44659       76.43126       16.22293
N         84.42860       72.74775       15.19329
C         83.81174       71.43431       15.12792
C         82.50055       71.49428       15.87642
O         81.47068       71.19266       15.29138
C         84.74459       70.39465       15.77421
C         86.11346       70.35967       15.09203
C         87.08480       69.47466       15.80614
O         88.34967       69.46995       15.38023
O         86.76900       68.81137       16.78030
H         84.82297       73.00440       16.10197
H         83.60948       71.13462       14.07400
H         84.27651       69.38782       15.74111
H         84.90519       70.66601       16.84134
H         86.55513       71.37856       15.10601
H         86.01733       70.03311       14.03406
N         82.46570       71.92089       17.17189
C         81.24979       72.06637       17.93951
H         80.34964       71.76315       17.36684
H         81.32083       71.44512       18.85580
H         81.13770       73.13144       18.23465
H         83.33987       72.18609       17.64307
Ca        90.01657       68.40676       16.40425
O         89.72058       65.33807       18.67669
H         89.51451       64.37175       18.72708
H         88.90026       65.74943       18.31173
O         86.38850       66.39530       18.34896
H         86.25848       65.41830       18.26303
H         85.55869       66.78970       17.98159

Ca 1.0



