%chk=holoCaM-CaMKII.loop1.water2.frame131.chk
%nprocshared=20
%mem=10GB
%nosave
#b3lyp/svp scf=(tight,noincore,xqc) Test 
#IOP(5/87=12) Density=Current Pop=(MK,readradii) iop(6/33=2) iop(6/42=6)

holoCaM-CaMKII.loop1.water2.frame131 

   0  1 
C         30.08716       39.54042       69.19817
C         28.64723       39.59168       68.79586
O         27.79215       39.75154       69.65500
H         30.63968       40.36388       68.69918
H         30.18959       39.65407       70.29870
H         30.52173       38.56561       68.89482
N         28.30068       39.49122       67.48365
C         26.91424       39.56297       67.05078
C         26.17545       38.31492       67.50896
O         26.48579       37.23068       67.03377
C         26.84763       39.72226       65.52147
C         25.47283       40.03463       65.01974
O         25.31211       40.22078       63.82999
O         24.42552       40.15376       65.85660
H         29.05169       39.41111       66.77987
H         26.47413       40.48367       67.49909
H         27.23350       38.80578       65.02322
H         27.49426       40.57166       65.21734
N         25.22999       38.38969       68.48496
C         24.56399       37.21003       69.02772
C         23.60527       36.59772       68.01683
O         23.86993       35.50063       67.54391
C         23.87334       37.55269       70.36580
C         24.80881       38.05918       71.49902
C         25.84471       37.02579       71.98471
C         27.17794       37.02362       71.20603
N         27.98199       35.85946       71.57121
H         25.05240       39.30923       68.91298
H         25.30833       36.42476       69.24139
H         23.34426       36.64842       70.73700
H         23.10792       38.33882       70.19732
H         24.12574       38.25591       72.35439
H         25.30517       39.02249       71.26307
H         25.36060       36.02638       71.98892
H         26.12137       37.26703       73.03500
H         27.73369       37.95565       71.44578
H         27.05902       37.01537       70.11328
H         28.88872       35.88986       71.05132
H         28.16992       35.85008       72.59900
H         27.47209       34.98726       71.29649
N         22.45383       37.23058       67.66169
C         21.49095       36.67447       66.71139
C         22.01249       36.59259       65.27152
O         21.33415       35.98433       64.45511
C         20.15806       37.46337       66.75104
C         20.30081       38.93050       66.43512
O         21.51993       39.47913       66.28548
O         19.30716       39.63249       66.34459
H         22.22479       38.10519       68.14270
H         21.25880       35.63689       67.04004
H         19.70576       37.37420       67.76218
H         19.45490       37.00332       66.02306
N         23.18894       37.16016       64.87691
C         23.73245       37.01138       63.53397
C         22.85584       37.59542       62.44185
O         22.45975       36.85370       61.55400
H         23.75494       37.68450       65.55633
H         23.90295       35.92997       63.33747
H         24.72152       37.51577       63.48265
N         22.56442       38.92755       62.41013
C         21.83579       39.57485       61.31101
C         22.70402       40.58602       60.55983
O         22.19847       41.20025       59.63117
C         20.50718       40.19405       61.81350
C         20.62182       41.24600       62.87765
O         21.81489       41.65682       63.32438
O         19.61049       41.65008       63.42919
H         22.91263       39.50802       63.18545
H         21.53798       38.81954       60.55227
H         19.90583       39.36345       62.24420
H         19.93619       40.62084       60.96171
N         24.01790       40.79180       60.87794
C         24.89860       41.71606       60.17703
C         25.35924       42.86758       61.05480
O         26.13748       43.67956       60.57503
H         24.44291       40.25978       61.64177
H         24.39530       42.16046       59.29211
H         25.78053       41.14665       59.81319
N         24.86928       43.05022       62.31447
C         25.10137       44.24896       63.11366
C         25.25447       43.90640       64.58737
O         24.38023       43.27166       65.16131
C         23.92034       45.25222       62.92843
C         24.25956       46.31813       61.88763
O         22.74018       44.60728       62.52809
H         24.16353       42.39224       62.66919
H         26.03807       44.76298       62.80304
H         23.73633       45.82742       63.86529
H         22.50190       43.98316       63.25304
H         25.13849       46.90589       62.23400
H         24.48819       45.86375       60.90264
H         23.40447       47.01863       61.77796
N         26.32227       44.39487       65.28037
C         26.47271       44.29264       66.72613
C         25.81066       45.51616       67.34354
O         26.13179       46.62750       66.94146
C         27.98449       44.23317       67.10949
C         28.70224       43.07203       66.37577
C         28.14337       44.08503       68.63932
C         30.22616       43.11370       66.51294
H         26.98460       45.01063       64.78256
H         25.99044       43.36076       67.10116
H         28.45666       45.18728       66.78460
H         28.49523       43.12986       65.28650
H         28.32040       42.10334       66.75089
H         27.65798       44.92619       69.17281
H         27.68250       43.13430       68.98767
H         29.20805       44.09399       68.94361
H         30.67104       42.28074       65.92868
H         30.61596       44.07216       66.10685
H         30.55408       43.00052       67.56441
N         24.90504       45.38761       68.35322
C         24.24530       46.51844       68.99967
C         24.84658       46.74321       70.37131
O         25.75430       46.01986       70.75288
C         22.71190       46.28702       69.09737
C         22.05828       46.06995       67.72540
O         22.41460       45.23122       69.97835
H         24.72885       44.44996       68.73006
H         24.41839       47.45133       68.41934
H         22.23587       47.19588       69.52037
H         22.43171       44.38455       69.46824
H         22.46982       45.16259       67.23459
H         20.96266       45.93469       67.85542
H         22.23507       46.94789       67.07083
N         24.41257       47.75422       71.16622
C         24.96325       48.01030       72.49270
C         24.68293       46.82182       73.40818
O         25.59920       46.29771       74.02249
C         24.35878       49.30872       73.08466
C         25.08763       49.73606       74.36103
O         24.48206       50.35552       72.15213
H         23.66852       48.37211       70.80633
H         26.06085       48.17553       72.39402
H         23.28290       49.13544       73.33301
H         23.56572       50.60797       71.86200
H         24.63349       50.66873       74.75712
H         25.02844       48.95126       75.14244
H         26.15763       49.93960       74.13403
N         23.41019       46.34148       73.50693
C         22.98875       45.23315       74.36430
C         23.79995       43.97511       74.09237
O         24.34764       43.40890       75.02866
C         21.47495       44.99178       74.14166
C         20.83257       44.02279       75.14582
C         19.31445       43.93881       74.89010
C         18.55470       43.06006       75.89834
N         18.57317       43.62105       77.25175
H         22.69223       46.79955       72.92493
H         23.13226       45.53456       75.42594
H         21.29494       44.64212       73.10042
H         20.95981       45.96998       74.27006
H         21.02300       44.41554       76.16537
H         21.28463       43.01104       75.05703
H         19.15530       43.51822       73.87285
H         18.86769       44.95748       74.91301
H         18.97319       42.03020       75.90441
H         17.49516       42.99715       75.56217
H         17.97786       43.02758       77.87351
H         19.54180       43.63002       77.64060
H         18.18181       44.59150       77.24533
N         23.94798       43.50628       72.82284
C         24.72828       42.31714       72.47559
C         26.16140       42.44650       72.96545
O         26.60164       41.59733       73.72753
C         24.70107       42.08655       70.94702
C         23.28381       41.73200       70.46422
C         23.22146       41.55121       68.97709
O         22.80945       40.38430       68.47078
O         23.50215       42.46102       68.21743
H         23.50119       44.04617       72.06784
H         24.27949       41.42258       72.96433
H         25.38022       41.25066       70.67695
H         25.07247       42.99790       70.43499
H         22.55744       42.51726       70.74477
H         22.96260       40.78986       70.95860
N         26.93586       43.49781       72.58523
C         28.29688       43.70676       73.03462
H         28.97007       43.76292       72.15390
H         28.35390       44.66740       73.58955
H         28.65321       42.89503       73.70230
H         26.53724       44.20077       71.95880
Ca        21.87215       41.54884       65.53035
O         20.92702       44.51674       65.13190
H         20.14350       44.48858       65.73372
H         20.53931       44.66302       64.23331
O         19.93999       42.55258       67.73460
H         19.24155       42.34469       67.06394
H         19.45794       43.03097       68.45467

Ca 1.0



