%chk=holoCaM.loop3.water2.frame454.chk
%nprocshared=20
%mem=10GB
%nosave
#b3lyp/svp scf=(tight,noincore,xqc) Test 
#IOP(5/87=12) Density=Current Pop=(MK,readradii) iop(6/33=2) iop(6/42=6)

holoCaM.loop3.water2.frame454 

   0  1 
C         23.39130       71.72822       64.16121
C         24.15297       71.26591       65.36908
O         23.62904       70.45637       66.12162
H         22.44505       72.21389       64.47527
H         23.98306       72.45088       63.56078
H         23.15620       70.85299       63.51792
N         25.42167       71.70808       65.59856
C         26.23398       71.20647       66.69758
C         25.68514       71.67057       68.04557
O         25.60300       72.86740       68.28306
C         27.71298       71.62904       66.51625
C         28.62337       70.73884       67.32247
O         28.41179       70.54089       68.62784
O         29.46120       70.05981       66.75588
H         25.84667       72.35865       64.91996
H         26.21166       70.09922       66.62959
H         27.84459       72.70679       66.75007
H         28.00215       71.47304       65.45233
N         25.30598       70.75515       68.97950
C         24.78969       71.07803       70.30913
C         25.79240       71.88887       71.12138
O         25.44069       72.96228       71.58984
C         24.45324       69.75954       71.05784
C         23.87765       69.97485       72.46967
C         23.62434       68.62695       73.16693
C         22.99096       68.76692       74.56360
N         23.84876       69.49013       75.50519
H         25.38801       69.76513       68.72199
H         23.84686       71.66083       70.20068
H         25.37495       69.14414       71.13996
H         23.71237       69.18556       70.45781
H         22.92632       70.54487       72.39599
H         24.60396       70.55705       73.07250
H         24.58195       68.06820       73.25690
H         22.93056       68.02394       72.54116
H         22.80997       67.74320       74.96142
H         22.00737       69.27977       74.48327
H         23.95703       70.48813       75.21710
H         23.40069       69.47557       76.44999
H         24.78587       69.03040       75.57027
N         27.04431       71.40591       71.36145
C         28.00905       72.03652       72.26391
C         29.25451       72.56549       71.54971
O         30.21456       72.90728       72.22692
C         28.36612       71.04633       73.40462
C         29.06642       69.77654       72.99269
O         29.42635       68.88586       73.93554
O         29.31397       69.53658       71.82577
H         27.30399       70.51755       70.91468
H         27.55619       72.91711       72.76905
H         27.42983       70.76113       73.93182
H         29.02136       71.56626       74.13546
N         29.28493       72.75363       70.19897
C         30.42345       73.32454       69.48969
C         31.66757       72.45061       69.43075
O         32.66427       72.93035       68.90781
H         28.43044       72.58586       69.65669
H         30.67993       74.29575       69.96603
H         30.12799       73.53178       68.43864
N         31.71403       71.18227       69.93496
C         32.94419       70.38738       69.95417
C         33.41090       69.92442       68.56764
O         34.47009       69.31814       68.49338
C         32.81508       69.22162       70.96772
C         31.96759       68.05302       70.52296
N         32.42856       66.78842       70.66909
O         30.85314       68.23636       70.06233
H         30.87632       70.80346       70.38945
H         33.73607       71.04159       70.38375
H         32.38644       69.63862       71.90585
H         33.82889       68.84443       71.22416
H         33.35402       66.60511       71.08428
H         31.85336       65.98222       70.38754
N         32.67793       70.15651       67.43408
C         33.11737       69.78830       66.09210
C         32.44326       68.53615       65.55040
O         32.74496       68.17526       64.42030
H         31.77107       70.63177       67.50262
H         34.21409       69.60433       66.07514
H         32.93343       70.64980       65.41341
N         31.60580       67.77097       66.31106
C         31.11809       66.44689       65.91072
C         29.62871       66.30368       66.18046
O         29.23258       66.60187       67.30001
C         31.85500       65.40648       66.77684
C         33.35287       65.48658       66.59591
C         34.16825       65.90550       67.65907
C         33.94890       65.15260       65.36900
C         35.55175       65.99249       67.50374
C         35.33734       65.23276       65.21538
C         36.14303       65.65410       66.28435
O         37.48191       65.73675       66.15301
H         31.40943       68.06824       67.27874
H         31.33854       66.22592       64.84277
H         31.51162       64.37806       66.53208
H         31.59915       65.60019       67.84292
H         33.73559       66.17522       68.60699
H         33.34070       64.82562       64.53525
H         36.16289       66.32324       68.33434
H         35.78529       64.96755       64.26653
H         37.93333       65.50565       65.32916
N         28.74952       65.79680       65.25412
C         27.32536       65.61042       65.56270
C         26.94097       64.12582       65.55509
O         27.01473       63.47928       64.51939
C         26.39847       66.50785       64.67425
C         26.16761       65.98814       63.23060
C         26.93492       67.95194       64.67832
C         25.17207       66.83563       62.43177
H         29.09719       65.52169       64.32223
H         27.13643       65.97886       66.59313
H         25.40047       66.51227       65.16495
H         25.70314       64.98350       63.28076
H         27.12705       65.91640       62.67663
H         26.21631       68.65851       64.21669
H         27.11087       68.28345       65.71975
H         27.89723       68.01451       64.12558
H         25.57036       67.84996       62.23152
H         24.97639       66.35116       61.45188
H         24.20751       66.91705       62.97936
N         26.53735       63.51459       66.70685
C         26.06740       62.12757       66.78750
C         24.68314       61.97856       66.16219
O         24.13337       62.96571       65.70262
C         26.00619       61.69100       68.26546
O         25.11191       62.50112       68.97880
H         26.57542       64.06239       67.57418
H         26.79529       61.46205       66.27363
H         27.02382       61.78471       68.70526
H         25.68564       60.62839       68.33558
H         25.11582       62.16641       69.91253
N         24.04683       60.76747       66.12287
C         22.68440       60.61277       65.60957
C         21.61738       61.16627       66.55520
O         20.46767       61.22154       66.13889
C         22.36955       59.13756       65.34278
H         24.55577       59.93013       66.44296
H         22.62237       61.14277       64.63188
H         22.40974       58.55408       66.28720
H         21.35387       59.03357       64.90106
H         23.10163       58.71775       64.62198
N         21.90053       61.59169       67.82498
C         20.89669       62.20740       68.69419
C         20.95307       63.71905       68.59325
O         20.04279       64.38565       69.06542
C         21.10199       61.76689       70.14488
H         22.87260       61.56516       68.16025
H         19.88043       61.90054       68.36368
H         21.03569       60.66250       70.22408
H         22.10497       62.09165       70.50203
H         20.33111       62.22156       70.80324
N         21.99086       64.32475       67.96226
C         22.07466       65.74186       67.68439
C         21.34509       65.98593       66.37923
O         20.43403       66.80103       66.35218
C         23.56435       66.14593       67.67651
C         24.15147       65.90448       69.08642
C         25.60273       66.23098       69.17510
O         26.41274       65.41408       69.58023
O         25.98908       67.46897       68.86841
H         22.76001       63.75214       67.59836
H         21.58468       66.33969       68.48695
H         23.66572       67.22052       67.40608
H         24.12023       65.54295       66.92547
H         24.00869       64.85158       69.40316
H         23.61525       66.55932       69.80718
N         21.63207       65.23115       65.28046
C         20.88781       65.28612       64.04011
H         20.07892       66.04474       64.06334
H         21.57798       65.51278       63.20249
H         20.42315       64.29175       63.85769
H         22.38121       64.53316       65.33463
Ca        27.96976       68.43270       69.18396
O         27.02976       67.11464       71.98544
H         26.54384       66.27650       72.18809
H         27.52445       67.31713       72.81708
O         29.26537       65.46612       70.16247
H         29.52876       64.66670       69.64088
H         29.41811       65.21041       71.10667

Ca 1.0



