%chk=holoCaM.loop1.water2.frame21.chk
%nprocshared=20
%mem=10GB
%nosave
#b3lyp/svp scf=(tight,noincore,xqc) Test 
#IOP(5/87=12) Density=Current Pop=(MK,readradii) iop(6/33=2) iop(6/42=6)

holoCaM.loop1.water2.frame21 

   0  1 
C         84.08362        7.29024        2.39912
C         84.67487        6.30431        1.43546
O         85.82049        6.46960        1.04839
H         83.03731        7.02443        2.66161
H         84.68756        7.31361        3.32923
H         84.08134        8.29921        1.93549
N         83.94436        5.24368        1.00016
C         84.44274        4.27338        0.03171
C         84.69950        4.97332       -1.29863
O         83.79522        5.63835       -1.78567
C         83.40823        3.14105       -0.11003
C         83.87368        1.97487       -0.92653
O         83.05659        0.92058       -1.05074
O         84.98168        1.94289       -1.43677
H         82.98960        5.12483        1.37550
H         85.37310        3.81698        0.43014
H         82.46248        3.53743       -0.53930
H         83.18853        2.73949        0.90439
N         85.90739        4.88007       -1.93550
C         86.23886        5.65430       -3.13555
C         86.33625        4.81579       -4.40373
O         86.45204        5.40443       -5.47029
C         87.59028        6.37588       -2.94156
C         87.70074        7.25939       -1.69370
C         86.67613        8.39629       -1.67502
C         86.94566        9.34896       -0.50401
N         85.94490       10.41275       -0.45953
H         86.62524        4.25674       -1.54184
H         85.43765        6.39942       -3.32848
H         87.80475        6.99994       -3.83671
H         88.39110        5.60566       -2.86582
H         88.72546        7.69158       -1.69197
H         87.59409        6.64039       -0.77902
H         85.65392        7.97153       -1.58037
H         86.74317        8.97120       -2.62409
H         87.95666        9.79907       -0.62584
H         86.92843        8.79059        0.45717
H         85.94199       10.94378       -1.36066
H         84.99831       10.00223       -0.28754
H         86.17768       11.06840        0.32063
N         86.31514        3.45621       -4.37762
C         86.37753        2.61570       -5.57535
C         85.14280        1.73035       -5.71213
O         85.06405        0.98802       -6.68123
C         87.70463        1.81892       -5.61909
C         88.01538        0.95760       -4.42271
O         89.08518        0.37261       -4.37381
O         87.17870        0.88844       -3.37281
H         86.25619        2.99726       -3.46386
H         86.38722        3.24715       -6.49148
H         88.52964        2.56167       -5.69767
H         87.73178        1.19519       -6.53933
N         84.10574        1.80235       -4.82810
C         82.86146        1.07204       -4.98637
C         83.03202       -0.42032       -4.86261
O         82.61897       -1.14881       -5.75284
H         84.15113        2.44831       -4.02861
H         82.38877        1.34057       -5.95578
H         82.16900        1.38642       -4.17456
N         83.59491       -0.93941       -3.74084
C         83.67041       -2.36436       -3.43510
C         82.93564       -2.67707       -2.12563
O         83.08748       -3.77404       -1.60653
C         85.14412       -2.83476       -3.43575
C         86.06452       -2.18117       -2.44371
O         85.63030       -1.23099       -1.59999
O         87.23746       -2.51608       -2.41150
H         83.96121       -0.27592       -3.04610
H         83.17861       -2.97016       -4.22742
H         85.56073       -2.65228       -4.45043
H         85.16619       -3.93141       -3.25429
N         82.07016       -1.77591       -1.56781
C         81.31925       -1.99829       -0.33922
C         82.14593       -1.96699        0.93746
O         81.54607       -2.09965        1.99580
H         81.86054       -0.90427       -2.07125
H         80.75908       -2.95498       -0.41478
H         80.57238       -1.17957       -0.24105
N         83.50012       -1.80233        0.94054
C         84.31786       -1.77554        2.15341
C         85.18801       -0.52665        2.24293
O         85.27463        0.24540        1.29671
C         85.19539       -3.05884        2.23093
C         84.37869       -4.23387        2.76434
O         85.71592       -3.41619        0.97482
H         83.98788       -1.71936        0.04476
H         83.67129       -1.73095        3.05799
H         86.03061       -2.92707        2.95366
H         86.14937       -2.61538        0.59270
H         83.50094       -4.44167        2.11873
H         85.01787       -5.14100        2.81534
H         84.02916       -4.00434        3.79494
N         85.81963       -0.25506        3.42395
C         86.64110        0.92094        3.69894
C         87.99694        0.46829        4.23087
O         88.04177       -0.20803        5.25097
C         85.89555        1.83984        4.72002
C         84.62437        2.42456        4.04167
C         86.80446        2.97094        5.24417
C         83.75992        3.29830        4.95215
H         85.66327       -0.90507        4.21149
H         86.80259        1.51640        2.77560
H         85.59836        1.22533        5.59989
H         83.98126        1.59155        3.68752
H         84.92140        3.03077        3.15668
H         86.28797        3.57300        6.01768
H         87.70070        2.55643        5.74811
H         87.12305        3.63626        4.41885
H         83.42436        2.71978        5.83792
H         84.30226        4.20719        5.28194
H         82.86633        3.63913        4.38725
N         89.14943        0.83297        3.59671
C         90.48415        0.46807        4.07933
C         90.98970        1.47235        5.10823
O         90.32517        2.46870        5.35156
C         91.49841        0.37429        2.90338
C         91.07589       -0.64026        1.83822
O         91.73748        1.63227        2.32148
H         89.06900        1.40301        2.74389
H         90.43233       -0.53640        4.55605
H         92.46977        0.01402        3.30269
H         90.97963        1.86033        1.72438
H         91.85564       -0.69896        1.04977
H         90.94627       -1.64548        2.29035
H         90.12521       -0.32216        1.36527
N         92.18602        1.27675        5.74024
C         92.77679        2.25701        6.65463
C         93.10790        3.54878        5.92323
O         93.01906        4.60757        6.52913
C         94.05174        1.72292        7.34660
C         93.75292        0.51181        8.23709
O         95.01779        1.38527        6.38371
H         92.70221        0.40601        5.54724
H         92.04059        2.48430        7.45962
H         94.43758        2.53855        8.00556
H         95.90500        1.47737        6.81983
H         93.36545       -0.34151        7.64373
H         94.68165        0.18793        8.75235
H         93.00206        0.78252        9.01020
N         93.47424        3.53544        4.60818
C         93.67454        4.74922        3.82143
C         92.37532        5.54289        3.79988
O         92.36144        6.69828        4.19985
C         94.06735        4.39459        2.36046
C         95.42219        3.68136        2.18802
C         96.62004        4.60603        2.44735
C         97.94260        3.89996        2.11014
N         99.07706        4.81065        2.26291
H         93.56620        2.62370        4.13699
H         94.47828        5.37048        4.27204
H         94.08176        5.31574        1.73711
H         93.28915        3.72720        1.93542
H         95.48069        3.35602        1.12560
H         95.47979        2.77089        2.82225
H         96.63535        4.93715        3.50683
H         96.52404        5.49951        1.79213
H         97.91403        3.54062        1.05663
H         98.07856        3.01883        2.77578
H         99.14006        5.14841        3.25029
H         99.95876        4.30458        2.01782
H         98.96999        5.62654        1.61651
N         91.23779        4.95660        3.33404
C         89.94068        5.62046        3.22430
C         89.30220        5.91689        4.57883
O         88.25685        6.55311        4.59327
C         88.98698        4.72280        2.40100
C         89.48458        4.54858        0.95190
C         88.69954        3.52997        0.17495
O         87.70121        2.83056        0.74617
O         88.99445        3.30862       -0.98823
H         91.31270        3.98417        3.01126
H         90.07444        6.58186        2.68022
H         87.96371        5.15730        2.36518
H         88.92915        3.73599        2.90713
H         90.54056        4.21286        0.93334
H         89.42735        5.53154        0.43793
N         89.83875        5.48166        5.75288
C         89.21961        5.74639        7.03302
H         88.19605        5.31575        7.05664
H         89.81742        5.27912        7.84528
H         89.16987        6.84088        7.21239
H         90.70026        4.92909        5.75450
Ca        87.93961        0.27852       -1.34072
O         90.90468        0.52792       -1.36868
H         90.49315        0.95371       -2.16191
H         90.77408       -0.44334       -1.51233
O         88.50624       -1.99177        0.28068
H         88.30704       -1.99454        1.25087
H         89.38177       -2.44366        0.19851

Ca 1.0



