%chk=holoCaM-CaMKII.loop1.water2.frame116.chk
%nprocshared=20
%mem=10GB
%nosave
#b3lyp/svp scf=(tight,noincore,xqc) Test 
#IOP(5/87=12) Density=Current Pop=(MK,readradii) iop(6/33=2) iop(6/42=6)

holoCaM-CaMKII.loop1.water2.frame116 

   0  1 
C         29.08382       47.77692       61.66550
C         28.62263       47.99804       60.25951
O         27.43788       48.18678       60.03561
H         29.81713       48.56319       61.94216
H         28.22696       47.81455       62.37074
H         29.56854       46.78077       61.74023
N         29.52492       48.00756       59.24627
C         29.13898       48.20631       57.85870
C         28.31899       47.00876       57.37182
O         28.77870       45.88448       57.51578
C         30.40128       48.44426       57.00449
C         30.05180       48.86302       55.61161
O         30.93065       49.16067       54.82778
O         28.76091       48.92561       55.24839
H         30.52406       47.89230       59.47999
H         28.54154       49.14528       57.79335
H         31.04470       47.53861       56.98265
H         30.97817       49.28062       57.45850
N         27.09547       47.18364       56.78488
C         26.19340       46.08590       56.43474
C         26.12927       45.79884       54.93764
O         25.97217       44.63454       54.59572
C         24.76659       46.35557       56.96262
C         24.67716       46.74417       58.44819
C         25.30052       45.71539       59.39726
C         25.07597       46.11822       60.86238
N         25.76308       45.19710       61.76563
H         26.77209       48.14238       56.62014
H         26.55188       45.14771       56.91270
H         24.14506       45.44969       56.78682
H         24.31604       47.19199       56.38346
H         23.60138       46.87604       58.69732
H         25.18118       47.71859       58.59882
H         26.39217       45.65720       59.20194
H         24.84904       44.71543       59.22291
H         23.98575       46.11659       61.08285
H         25.45271       47.14636       61.04491
H         25.57509       45.48209       62.75373
H         25.41712       44.22156       61.61824
H         26.79491       45.23615       61.59525
N         26.24274       46.77945       53.99055
C         26.21405       46.50664       52.54778
C         27.58547       46.60555       51.87329
O         27.65386       46.45712       50.66094
C         25.05687       47.24543       51.82533
C         25.03130       48.74578       51.60256
O         24.07067       49.19813       51.00003
O         25.98546       49.61664       51.98815
H         26.36949       47.74104       54.31229
H         25.95075       45.43737       52.39076
H         24.12067       46.97642       52.36233
H         24.98539       46.80205       50.80723
N         28.73297       46.68471       52.61000
C         30.07042       46.52470       52.05403
C         30.51068       47.64532       51.14312
O         30.88819       47.37865       50.01119
H         28.67079       46.74831       53.63564
H         30.13427       45.54716       51.52589
H         30.79657       46.49263       52.89525
N         30.53302       48.92634       51.59855
C         31.05831       50.06143       50.84665
C         32.12416       50.82175       51.64746
O         32.48194       51.92366       51.25541
C         29.89381       50.95888       50.36736
C         29.04594       51.61646       51.42059
O         29.29999       51.46710       52.72877
O         28.10098       52.30636       51.07602
H         30.16048       49.10504       52.53671
H         31.54609       49.72057       49.90686
H         29.22418       50.32786       49.74276
H         30.30786       51.75930       49.71729
N         32.71964       50.26940       52.74842
C         33.74440       50.93207       53.54622
C         33.23621       52.05952       54.42919
O         34.05523       52.62355       55.14349
H         32.50087       49.29784       53.00343
H         34.55767       51.29515       52.88139
H         34.18654       50.18180       54.23805
N         31.92767       52.44635       54.45666
C         31.41422       53.51413       55.31191
C         30.26201       53.02553       56.18377
O         29.75284       51.93137       55.97442
C         30.97127       54.72492       54.45332
C         32.14591       55.34156       53.67719
O         29.92970       54.37097       53.57741
H         31.26460       51.97530       53.83976
H         32.21512       53.86092       56.00226
H         30.58653       55.52156       55.12597
H         30.32114       53.87738       52.81075
H         32.58736       54.60562       52.97144
H         31.79064       56.21703       53.09349
H         32.93505       55.67967       54.38106
N         29.83908       53.79038       57.22901
C         28.77598       53.42158       58.16213
C         27.78460       54.57685       58.23689
O         28.20157       55.69317       58.52122
C         29.40020       53.10154       59.55731
C         30.35203       51.87748       59.44044
C         28.30409       52.82084       60.60949
C         31.19629       51.62504       60.69056
H         30.34365       54.67274       57.41460
H         28.24820       52.50003       57.83129
H         29.98658       53.98810       59.88604
H         31.07714       52.04004       58.61734
H         29.76194       50.96557       59.20035
H         28.73851       52.62889       61.61024
H         27.64004       53.69873       60.72939
H         27.68911       51.94319       60.31484
H         31.86097       50.75311       60.51170
H         31.83091       52.51248       60.90015
H         30.57564       51.39654       61.57846
N         26.44879       54.37372       58.04955
C         25.44705       55.42904       58.18541
C         24.83651       55.36088       59.57331
O         25.20740       54.48544       60.33841
C         24.34688       55.29610       57.09584
C         24.92673       55.22923       55.68434
O         23.58577       54.14041       57.32416
H         26.11373       53.41366       57.91242
H         25.93044       56.42530       58.08041
H         23.68710       56.19152       57.16834
H         22.70066       54.28059       56.89567
H         24.10074       55.16815       54.94327
H         25.54142       56.12554       55.46566
H         25.54607       54.31535       55.57981
N         23.89978       56.25737       59.98336
C         23.26923       56.18030       61.30019
C         22.47405       54.88503       61.41247
O         22.64243       54.15455       62.37747
C         22.35143       57.40138       61.54357
C         21.82951       57.41955       62.98775
O         23.08521       58.57870       61.32117
H         23.62574       57.01435       59.33787
H         24.06341       56.21461       62.08132
H         21.49430       57.35073       60.83071
H         22.43132       59.28415       61.07419
H         22.68195       57.47882       63.70018
H         21.18062       58.30594       63.14606
H         21.23823       56.50838       63.21460
N         21.61177       54.53571       60.41519
C         20.79938       53.31980       60.39803
C         21.65506       52.07885       60.60684
O         21.34006       51.28200       61.47972
C         20.02976       53.25356       59.05524
C         19.01743       52.10030       58.97940
C         18.24397       52.15091       57.64839
C         17.21670       51.01614       57.48927
N         16.12126       51.10869       58.45709
H         21.54887       55.17014       59.60355
H         20.04953       53.37949       61.21800
H         20.75055       53.17600       58.21087
H         19.46300       54.20418       58.93916
H         18.31277       52.20115       59.83011
H         19.54734       51.12650       59.05925
H         18.97578       52.06459       56.81538
H         17.72121       53.12779       57.54728
H         17.72389       50.03084       57.58179
H         16.78600       51.08318       56.46502
H         15.62875       52.02609       58.35625
H         15.43752       50.34050       58.26788
H         16.47217       50.99657       59.43375
N         22.77585       51.87625       59.86172
C         23.66040       50.72112       60.01396
C         24.16181       50.61493       61.44826
O         24.02518       49.55331       62.03986
C         24.82795       50.77610       58.99335
C         24.28654       50.73079       57.54355
C         25.34753       50.64143       56.48261
O         26.30296       51.57956       56.37197
O         25.30057       49.74364       55.65930
H         23.01946       52.60149       59.17646
H         23.09206       49.79110       59.78757
H         25.48418       49.89771       59.15804
H         25.44081       51.68480       59.15947
H         23.69055       51.63530       57.33120
H         23.61576       49.85050       57.43673
N         24.67959       51.69689       62.09237
C         25.08966       51.69275       63.48304
H         26.14334       52.03111       63.56090
H         24.44777       52.39839       64.05446
H         25.00098       50.69001       63.95022
H         24.73964       52.58732       61.59282
Ca        27.74781       49.36802       53.31852
O         26.94964       53.63860       53.48086
H         27.44260       54.25564       54.07694
H         26.21742       54.19143       53.10897
O         24.32973       52.01989       53.50196
H         24.44137       51.78150       52.54781
H         24.02331       52.96098       53.48504

Ca 1.0



