%chk=holoCaM.loop1.water2.frame173.chk
%nprocshared=20
%mem=10GB
%nosave
#b3lyp/svp scf=(tight,noincore,xqc) Test 
#IOP(5/87=12) Density=Current Pop=(MK,readradii) iop(6/33=2) iop(6/42=6)

holoCaM.loop1.water2.frame173 

   0  1 
C         -1.38607       72.31853       11.80102
C         -1.22071       71.14148       12.71539
O         -2.14690       70.35577       12.83349
H         -2.24846       72.92707       12.14802
H         -0.48325       72.96508       11.80399
H         -1.57558       71.97003       10.76564
N         -0.06330       70.96351       13.41010
C          0.13429       69.89461       14.38702
C         -0.87718       70.05958       15.51086
O         -0.77404       71.00583       16.27926
C          1.60138       69.94879       14.86866
C          1.95409       69.17637       16.10388
O          1.71911       67.86231       16.24281
O          2.49543       69.76751       17.02482
H          0.70045       71.63801       13.24608
H         -0.03235       68.91485       13.88648
H          1.86694       71.00775       15.08698
H          2.24804       69.61142       14.02909
N         -1.95249       69.21915       15.58613
C         -3.06650       69.45170       16.49785
C         -2.81282       68.95184       17.91295
O         -3.61240       69.30926       18.76796
C         -4.37638       68.79915       15.97565
C         -4.83418       69.36442       14.62014
C         -6.19047       68.78283       14.19389
C         -6.66091       69.40116       12.86883
N         -7.94304       68.83550       12.44740
H         -2.05681       68.50623       14.85230
H         -3.25019       70.54905       16.54296
H         -5.18760       69.00418       16.70902
H         -4.24927       67.69591       15.89909
H         -4.08555       69.12533       13.83937
H         -4.93077       70.46854       14.70488
H         -6.95075       68.99810       14.97609
H         -6.10002       67.68037       14.07917
H         -5.90090       69.21789       12.08369
H         -6.76600       70.50246       12.98295
H         -8.21343       69.24720       11.52485
H         -7.86602       67.79767       12.34255
H         -8.68347       69.06488       13.14958
N         -1.81872       68.06287       18.23588
C         -1.72772       67.47123       19.57853
C         -0.35758       67.56573       20.25610
O         -0.31971       67.34092       21.45819
C         -2.30505       66.03795       19.56958
C         -1.60158       65.05019       18.68051
O         -2.08273       63.79602       18.58680
O         -0.61627       65.36352       18.03525
H         -1.20575       67.71309       17.48849
H         -2.39660       68.03823       20.26162
H         -3.36011       66.10053       19.22177
H         -2.31450       65.63588       20.60520
N          0.79117       67.90936       19.60200
C          2.04228       68.21618       20.29929
C          3.17233       67.23268       20.04654
O          3.76846       66.76128       21.00429
H          0.77017       68.03465       18.58293
H          1.88937       68.28821       21.39798
H          2.36751       69.22317       19.96189
N          3.53081       66.88813       18.78384
C          4.63544       65.99844       18.43582
C          5.46805       66.53481       17.25991
O          6.37270       65.83444       16.82624
C          4.09042       64.57807       18.17611
C          2.92908       64.52090       17.22847
O          3.03278       64.91916       16.08496
O          1.75713       64.01226       17.64730
H          2.93995       67.22299       18.02689
H          5.33998       65.88857       19.29040
H          3.73839       64.16782       19.14769
H          4.90988       63.91798       17.81759
N          5.26748       67.77767       16.72573
C          6.07620       68.33891       15.65147
C          5.82485       67.74954       14.27492
O          6.47847       68.20893       13.34775
H          4.57279       68.40513       17.14381
H          7.15249       68.25151       15.91720
H          5.84139       69.42252       15.56579
N          4.90945       66.76327       14.04055
C          4.64488       66.21298       12.71046
C          3.17226       66.35223       12.32876
O          2.35211       66.71001       13.16465
C          5.10484       64.73422       12.63434
C          6.62331       64.59176       12.83498
O          4.40335       63.93369       13.55319
H          4.38014       66.38307       14.82930
H          5.21990       66.78091       11.94635
H          4.88885       64.34174       11.61758
H          4.81032       64.05817       14.45004
H          6.93069       64.95928       13.83744
H          6.91497       63.52338       12.74850
H          7.16823       65.17085       12.06006
N          2.78846       66.12871       11.03756
C          1.42314       66.26030       10.52635
C          1.01831       64.94887        9.84552
O          1.78310       64.41085        9.05622
C          1.32610       67.50369        9.58730
C          1.56860       68.79287       10.43123
C         -0.05320       67.56961        8.89965
C          1.53802       70.10190        9.63900
H          3.52374       65.89465       10.35147
H          0.70432       66.45487       11.35267
H          2.09959       67.42129        8.79225
H          2.56482       68.73302       10.91739
H          0.80007       68.86257       11.23423
H         -0.86129       67.67547        9.65230
H         -0.10779       68.42029        8.19173
H         -0.23878       66.65926        8.29366
H          1.74789       70.94883       10.32759
H          2.30987       70.09000        8.84218
H          0.54031       70.28870        9.19286
N         -0.20182       64.39861       10.10784
C         -0.68944       63.10695        9.62385
C         -1.87244       63.29143        8.68019
O         -2.25488       64.41802        8.40862
C         -1.13847       62.25756       10.84856
C          0.02996       61.95780       11.78847
O         -2.14263       62.94924       11.54859
H         -0.84330       64.93369       10.69806
H          0.10517       62.56668        9.06386
H         -1.54669       61.28540       10.49625
H         -2.47023       62.35783       12.27504
H          0.81639       61.38594       11.25489
H          0.45661       62.90193       12.17777
H         -0.32607       61.34868       12.64793
N         -2.50096       62.20968        8.13180
C         -3.69426       62.31055        7.28408
C         -4.95683       62.70540        8.06224
O         -5.97799       62.92184        7.42493
C         -3.96142       60.97321        6.55163
C         -2.83522       60.64149        5.56511
O         -4.10660       59.93989        7.49251
H         -2.10053       61.27743        8.31418
H         -3.51083       63.08826        6.50817
H         -4.90155       61.07802        5.96084
H         -4.48286       59.15987        7.00896
H         -3.06865       59.69417        5.03521
H         -2.74784       61.44938        4.80707
H         -1.86130       60.52684        6.08346
N         -4.97211       62.82639        9.42102
C         -6.13516       63.26022       10.19514
C         -5.92528       64.67962       10.71134
O         -6.77985       65.16887       11.43819
C         -6.37756       62.28661       11.37856
C         -7.12377       60.98915       11.01937
C         -6.43593       60.06446       10.01070
C         -7.29545       58.80625        9.79589
N         -6.70485       57.91683        8.79838
H         -4.10615       62.66094        9.94898
H         -7.05841       63.31804        9.57907
H         -7.04995       62.77970       12.11460
H         -5.42120       62.07529       11.90711
H         -8.12536       61.26522       10.62171
H         -7.27614       60.42480       11.96639
H         -5.43017       59.77388       10.38453
H         -6.33158       60.58706        9.04045
H         -8.31210       59.10457        9.45314
H         -7.40103       58.25902       10.75945
H         -5.75200       57.61318        9.10314
H         -7.31385       57.07295        8.69336
H         -6.64863       58.40455        7.87534
N         -4.83891       65.41808       10.34895
C         -4.57353       66.76505       10.82173
C         -4.52619       67.71788        9.63887
O         -5.30196       68.66229        9.61516
C         -3.25927       66.75786       11.61281
C         -3.36127       65.80239       12.81843
C         -2.06477       65.72859       13.54848
O         -1.04820       65.37080       12.98240
O         -1.99306       66.08085       14.83218
H         -4.14127       65.01389        9.71981
H         -5.37057       67.10378       11.51366
H         -3.01917       67.78385       11.96699
H         -2.44254       66.42787       10.94302
H         -3.62430       64.77845       12.48932
H         -4.15471       66.16299       13.50754
N         -3.66235       67.51338        8.60284
C         -3.60144       68.35637        7.42542
H         -2.57271       68.75538        7.30890
H         -3.85120       67.74968        6.52871
H         -4.30819       69.21040        7.47620
H         -3.02349       66.71065        8.62823
Ca         0.08057       66.65983       15.37381
O         -0.87175       62.43776       15.86261
H         -0.30727       61.65020       16.06629
H         -0.51503       63.15167       16.44723
O          1.68848       62.96034       14.52507
H          1.83988       63.69654       13.88038
H          2.15062       62.17872       14.13104

Ca 1.0



