%chk=holoCaM-CaMKII.loop1.water2.frame205.chk
%nprocshared=20
%mem=10GB
%nosave
#b3lyp/svp scf=(tight,noincore,xqc) Test 
#IOP(5/87=12) Density=Current Pop=(MK,readradii) iop(6/33=2) iop(6/42=6)

holoCaM-CaMKII.loop1.water2.frame205 

   0  1 
C         16.43020       82.66722       40.13870
C         15.97573       83.03614       41.51897
O         16.53533       83.95363       42.10184
H         17.49673       82.36346       40.16631
H         15.83241       81.82602       39.72759
H         16.31222       83.54239       39.46618
N         14.94805       82.36429       42.10545
C         14.43268       82.70043       43.42391
C         15.51251       82.49481       44.48761
O         16.09597       81.41967       44.51281
C         13.19478       81.83116       43.73811
C         12.48461       82.33492       44.95168
O         12.88868       83.47964       45.51771
O         11.55052       81.71437       45.42525
H         14.49534       81.60150       41.57777
H         14.10371       83.75990       43.38996
H         13.51528       80.77844       43.89523
H         12.46675       81.86253       42.89895
N         15.83526       83.47659       45.38899
C         16.97639       83.37873       46.30018
C         16.59927       83.27999       47.78279
O         17.50054       83.00246       48.56203
C         17.90737       84.57897       45.99857
C         19.27083       84.61556       46.71214
C         20.14502       83.39615       46.38717
C         21.55228       83.55250       46.97708
N         22.37272       82.37747       46.68508
H         15.29525       84.35162       45.38857
H         17.52457       82.44099       46.07592
H         17.36393       85.51922       46.24163
H         18.10968       84.58526       44.90430
H         19.14200       84.71279       47.81026
H         19.79398       85.53148       46.35823
H         20.23204       83.28683       45.28396
H         19.67825       82.47955       46.80490
H         21.48644       83.68906       48.07923
H         22.03588       84.45465       46.53922
H         21.95264       81.52902       47.12978
H         22.44496       82.23437       45.65137
H         23.33200       82.52369       47.07424
N         15.32386       83.44410       48.25850
C         14.96936       83.21784       49.66823
C         13.95635       82.08756       49.84850
O         13.61486       81.78365       50.98338
C         14.60734       84.53870       50.39724
C         13.25571       85.20487       50.24584
O         12.20386       84.64648       49.62511
O         13.07196       86.25529       50.83741
H         14.58829       83.72245       47.60445
H         15.87587       82.86914       50.21181
H         15.40326       85.27421       50.15070
H         14.68522       84.34003       51.49034
N         13.49699       81.36390       48.78461
C         12.64608       80.19263       48.90792
C         11.25606       80.50644       49.40233
O         10.83176       79.92309       50.38931
H         13.81609       81.59057       47.83283
H         13.14000       79.43917       49.56085
H         12.53063       79.73440       47.90107
N         10.46981       81.38245       48.71729
C          9.06324       81.63514       49.02766
C          8.15479       81.30267       47.83798
O          6.95541       81.52571       47.93357
C          8.88161       83.09495       49.49589
C          9.14032       84.15870       48.46260
O          9.02049       85.45106       48.81668
O          9.43662       83.87733       47.31275
H         10.88759       81.87598       47.91715
H          8.73720       80.99778       49.87855
H          9.56043       83.26867       50.35911
H          7.83798       83.22806       49.85392
N          8.65157       80.75458       46.69053
C          7.85851       80.44226       45.51507
C          7.34250       81.68062       44.81234
O          6.16901       81.72821       44.49599
H          9.64860       80.50967       46.63138
H          7.03483       79.74091       45.77257
H          8.52070       79.92637       44.78536
N          8.21417       82.67255       44.46627
C          7.90590       83.86503       43.65345
C          9.20403       84.60421       43.28448
O         10.24369       84.34794       43.87032
C          6.93763       84.89108       44.32694
C          5.44090       84.54846       44.33529
O          7.37209       85.21621       45.61972
H          9.18819       82.50915       44.74797
H          7.47897       83.51570       42.68848
H          6.97067       85.81836       43.71377
H          7.15032       84.44637       46.20668
H          4.87190       85.43152       44.69805
H          5.09573       84.31558       43.30535
H          5.18730       83.72659       45.02460
N          9.20993       85.51243       42.25726
C         10.42676       86.18755       41.80355
C         10.22433       87.69733       41.83860
O          9.42233       88.21539       41.07561
C         10.81637       85.68068       40.37932
C         11.07528       84.14836       40.42155
C         12.05508       86.42625       39.84323
C         11.37168       83.52337       39.05717
H          8.33649       85.68549       41.73939
H         11.27402       85.93878       42.47297
H          9.96704       85.88340       39.68925
H         10.17164       83.63464       40.81193
H         11.92188       83.92749       41.10929
H         11.87004       87.51735       39.79809
H         12.93644       86.23098       40.48711
H         12.29374       86.11948       38.80600
H         12.31314       83.91430       38.62258
H         11.49458       82.42616       39.17750
H         10.53039       83.71198       38.35742
N         10.93672       88.46332       42.71645
C         10.84748       89.92438       42.76948
C         11.68247       90.55559       41.66146
O         12.33251       89.84468       40.91166
C         11.35857       90.46396       44.13980
C         10.53295       89.94465       45.32131
O         12.73107       90.20345       44.31677
H         11.54874       87.97944       43.38643
H          9.78262       90.23298       42.67381
H         11.23229       91.56592       44.16803
H         12.83489       89.28933       44.68346
H         10.63164       88.84656       45.39770
H         10.90017       90.40018       46.26535
H          9.46214       90.20927       45.19258
N         11.75952       91.91222       41.55230
C         12.71057       92.59925       40.67825
C         14.14124       92.25544       41.08828
O         14.94660       91.92047       40.23110
C         12.52300       94.14249       40.72091
C         11.15056       94.58599       40.18912
O         12.76787       94.67444       42.00201
H         11.15445       92.47662       42.16324
H         12.54414       92.28844       39.62185
H         13.27536       94.58902       40.03368
H         11.97299       94.51042       42.57174
H         11.09255       95.69514       40.18541
H         11.00844       94.22351       39.14892
H         10.32452       94.19441       40.81815
N         14.50509       92.29601       42.40559
C         15.85182       92.02562       42.92680
C         16.37565       90.61753       42.61501
O         17.53320       90.35260       42.90475
C         15.81504       92.25804       44.46320
C         17.16250       92.15294       45.20289
C         17.04214       92.49022       46.69997
C         16.17612       91.48528       47.48352
N         16.13762       91.82733       48.90472
H         13.77191       92.55967       43.08202
H         16.54441       92.76100       42.46186
H         15.09723       91.52961       44.89372
H         15.42221       93.28405       44.63943
H         17.87071       92.87380       44.74039
H         17.59058       91.13423       45.12569
H         16.63109       93.51635       46.81732
H         18.06598       92.47612       47.13339
H         16.59886       90.46247       47.36515
H         15.13543       91.48018       47.09725
H         17.10309       91.81360       49.30633
H         15.71428       92.77520       49.03292
H         15.55085       91.12453       49.41018
N         15.60500       89.66694       42.02118
C         16.04896       88.30544       41.75876
C         16.17178       88.10032       40.26287
O         17.25903       87.76659       39.81147
C         15.05790       87.33193       42.42355
C         15.12955       87.45848       43.95859
C         14.08601       86.65561       44.68156
O         13.24696       86.01194       44.07467
O         14.06777       86.66104       46.02719
H         14.64040       89.88806       41.76068
H         17.05717       88.11050       42.19068
H         15.29536       86.28414       42.14222
H         14.03039       87.56825       42.07127
H         14.99544       88.51646       44.26200
H         16.13495       87.12586       44.29618
N         15.12107       88.32255       39.42555
C         15.21604       88.21175       37.98313
H         16.22928       87.90787       37.64415
H         14.48333       87.46358       37.61855
H         14.98447       89.19766       37.52684
H         14.21582       88.61103       39.81630
Ca        12.20778       84.15398       47.48439
O          9.21627       87.11807       46.50275
H          8.67920       87.45845       45.74344
H          9.14032       87.82196       47.19473
O         12.21319       88.23795       47.56739
H         11.91020       87.70053       48.34136
H         12.61424       89.05088       47.96553

Ca 1.0



