%chk=holoCaM-CaMKII.loop1.water2.frame446.chk
%nprocshared=20
%mem=10GB
%nosave
#b3lyp/svp scf=(tight,noincore,xqc) Test 
#IOP(5/87=12) Density=Current Pop=(MK,readradii) iop(6/33=2) iop(6/42=6)

holoCaM-CaMKII.loop1.water2.frame446 

   0  1 
C         71.18150       59.20641       25.15219
C         71.68198       57.97149       24.47360
O         72.44070       57.22390       25.07342
H         70.07414       59.15589       25.22640
H         71.60438       59.29001       26.17559
H         71.47066       60.09930       24.56133
N         71.26575       57.67947       23.21184
C         71.64012       56.45068       22.52990
C         73.14809       56.41424       22.27915
O         73.64799       57.16756       21.45571
C         70.83396       56.33496       21.22251
C         70.94461       55.01081       20.54046
O         71.65131       53.99523       21.07166
O         70.34390       54.84486       19.49674
H         70.60942       58.33175       22.75367
H         71.33199       55.60860       23.19205
H         71.14783       57.14055       20.52266
H         69.75429       56.47771       21.45085
N         73.93492       55.58855       23.02093
C         75.38961       55.49392       22.90307
C         75.82060       54.86733       21.58508
O         76.67868       55.42503       20.91616
C         75.97108       54.67159       24.08120
C         75.83562       55.43812       25.41160
C         76.50051       54.69631       26.57919
C         76.52199       55.57789       27.83817
N         77.17714       54.89353       28.95221
H         73.47167       55.03819       23.75518
H         75.84512       56.50689       22.97440
H         77.05835       54.51930       23.90136
H         75.49170       53.67029       24.14489
H         74.76812       55.62748       25.65643
H         76.34714       56.41789       25.28787
H         77.55065       54.45201       26.30871
H         75.95738       53.74870       26.78394
H         75.48459       55.85271       28.13121
H         77.08093       56.51475       27.61412
H         77.21795       55.53982       29.77350
H         76.63502       54.03981       29.21759
H         78.15356       54.62627       28.68818
N         75.27215       53.69690       21.16344
C         75.70866       52.95890       19.97149
C         74.82340       53.19830       18.74088
O         75.12644       52.64024       17.69493
C         75.86193       51.45069       20.30664
C         74.57141       50.79598       20.72661
O         74.53375       49.60210       20.97590
O         73.45668       51.53889       20.81249
H         74.50470       53.32876       21.73455
H         76.71631       53.31745       19.66568
H         76.60220       51.32979       21.12643
H         76.25228       50.92008       19.41047
N         73.78484       54.08262       18.75490
C         73.07848       54.51270       17.55296
C         72.15749       53.51173       16.86909
O         71.60579       53.89598       15.84682
H         73.57603       54.59146       19.62268
H         73.83299       54.86399       16.81493
H         72.44959       55.39126       17.81381
N         71.91260       52.24625       17.32608
C         71.02562       51.32137       16.59678
C         69.56204       51.77296       16.52541
O         68.80378       51.14778       15.79706
C         71.13416       49.87949       17.14443
C         70.75228       49.71026       18.58643
O         70.28007       50.73727       19.30699
O         70.98095       48.64924       19.14421
H         72.39887       51.92128       18.17385
H         71.39974       51.27537       15.54948
H         72.20074       49.57877       17.05167
H         70.52832       49.18150       16.52840
N         69.09592       52.84123       17.23247
C         67.74379       53.37161       17.13199
C         66.97547       53.31399       18.43850
O         65.88005       53.85483       18.47709
H         69.73317       53.32955       17.86302
H         67.14533       52.83949       16.36133
H         67.82562       54.43444       16.81834
N         67.44196       52.63230       19.52547
C         66.69124       52.48423       20.77035
C         67.54816       52.81747       21.98807
O         68.73944       53.06003       21.86270
C         66.11381       51.04534       20.86311
C         64.95090       50.82706       19.88522
O         67.11140       50.07712       20.66252
H         68.33172       52.12939       19.45129
H         65.83676       53.19562       20.79631
H         65.68046       50.88152       21.87212
H         67.31423       50.02928       19.69039
H         64.56048       49.79304       19.99680
H         64.12851       51.53747       20.11554
H         65.27314       50.97540       18.83375
N         66.95181       52.88274       23.21503
C         67.62712       53.22712       24.46375
C         67.39918       52.09442       25.46033
O         66.26101       51.68434       25.63972
C         67.06485       54.57689       25.01154
C         67.27512       55.70891       23.96781
C         67.74304       54.94486       26.34958
C         66.66318       57.05208       24.37505
H         65.93532       52.71658       23.26714
H         68.71769       53.37482       24.30586
H         65.97316       54.45825       25.19221
H         66.78867       55.41932       23.01259
H         68.36144       55.85066       23.77319
H         67.30992       55.86550       26.78721
H         67.58521       54.15101       27.10436
H         68.83422       55.09561       26.20702
H         65.57384       56.93792       24.55932
H         67.15004       57.46953       25.27892
H         66.80873       57.78584       23.55445
N         68.43250       51.59404       26.19773
C         68.27657       50.55005       27.20879
C         68.35217       51.16574       28.59188
O         68.54003       52.36460       28.70943
C         69.36040       49.44624       27.04543
C         69.31809       48.77643       25.67022
O         70.64599       49.94915       27.31885
H         69.35346       52.03157       26.10395
H         67.27476       50.07627       27.12233
H         69.16872       48.63912       27.78260
H         70.98157       50.40189       26.50482
H         69.53789       49.52774       24.88817
H         70.08876       47.97754       25.61686
H         68.32007       48.32761       25.48610
N         68.20209       50.39221       29.69958
C         68.29571       50.92740       31.05551
C         69.66191       51.56443       31.27954
O         69.72741       52.68797       31.75830
C         68.01011       49.84013       32.12801
C         66.60601       49.22405       31.98583
O         68.99804       48.83870       32.15135
H         68.02265       49.38897       29.56330
H         67.51167       51.70726       31.19073
H         68.03168       50.34576       33.11851
H         68.91868       48.30311       31.32127
H         66.49725       48.66099       31.03581
H         66.41617       48.51919       32.82198
H         65.83079       50.01934       32.01219
N         70.79354       50.91021       30.89343
C         72.14704       51.44247       31.04447
C         72.30919       52.78522       30.35116
O         72.74826       53.73183       30.98898
C         73.18622       50.47390       30.43354
C         73.25137       49.11217       31.14684
C         74.33163       48.18992       30.55461
C         74.03373       47.75100       29.10875
N         75.07169       46.84667       28.61523
H         70.67608       49.99191       30.44107
H         72.37812       51.56827       32.12621
H         74.19339       50.94213       30.50888
H         72.94707       50.33321       29.35959
H         72.27442       48.58704       31.10982
H         73.50255       49.29486       32.21418
H         74.38441       47.27842       31.18864
H         75.31874       48.69993       30.59952
H         73.98607       48.62965       28.43216
H         73.05009       47.23143       29.07779
H         75.12907       45.99619       29.22101
H         74.83444       46.55235       27.64020
H         75.99617       47.33607       28.60425
N         72.00075       52.92345       29.03140
C         72.22728       54.14851       28.26468
C         71.51423       55.32040       28.91821
O         72.17297       56.29422       29.25782
C         71.79904       53.95095       26.78660
C         72.66984       52.87759       26.09019
C         72.25047       52.57925       24.67445
O         73.05310       52.68069       23.76433
O         71.01864       52.11857       24.40273
H         71.58900       52.10819       28.55701
H         73.31690       54.37830       28.25943
H         71.91453       54.90600       26.23201
H         70.72967       53.66501       26.75982
H         72.62992       51.92377       26.64441
H         73.72661       53.21542       26.09675
N         70.18238       55.27510       29.18395
C         69.49865       56.33670       29.89056
H         68.43129       56.06676       30.03944
H         69.96231       56.48384       30.89082
H         69.55612       57.28187       29.31226
H         69.64326       54.44710       28.91230
Ca        71.37124       50.93342       21.21981
O         68.99797       49.39553       22.51554
H         69.31501       49.55810       21.59538
H         69.16675       48.43166       22.65842
O         72.18340       48.88083       23.37874
H         72.92521       49.51511       23.21202
H         71.96165       48.51632       22.48488

Ca 1.0



