%chk=holoCaM.loop3.water2.frame70.chk
%nprocshared=20
%mem=10GB
%nosave
#b3lyp/svp scf=(tight,noincore,xqc) Test 
#IOP(5/87=12) Density=Current Pop=(MK,readradii) iop(6/33=2) iop(6/42=6)

holoCaM.loop3.water2.frame70 

   0  1 
C         90.00286       -6.09114       26.72642
C         89.73583       -6.16914       28.19830
O         90.02768       -7.19077       28.79986
H         91.08984       -6.21128       26.54275
H         89.44615       -6.89983       26.20867
H         89.67703       -5.11554       26.30671
N         89.18827       -5.11201       28.85336
C         88.87725       -5.13330       30.27718
C         87.77645       -6.16010       30.50442
O         86.68070       -5.96689       29.99482
C         88.47043       -3.70139       30.68014
C         88.13614       -3.41225       32.10735
O         88.20776       -4.30902       33.10387
O         87.80888       -2.27682       32.37347
H         88.99030       -4.25588       28.31023
H         89.79779       -5.40272       30.83920
H         87.58289       -3.40505       30.07857
H         89.30884       -3.02120       30.40876
N         88.01350       -7.30367       31.21497
C         87.01981       -8.36964       31.35636
C         86.23894       -8.26029       32.65151
O         85.30789       -9.03701       32.81893
C         87.67874       -9.76710       31.24701
C         88.30508      -10.09161       29.87913
C         87.25787      -10.15109       28.75453
C         87.87367      -10.60837       27.42658
N         86.85260      -10.67504       26.38011
H         88.93993       -7.43676       31.64916
H         86.24512       -8.27050       30.56798
H         86.91964      -10.55422       31.45188
H         88.46335       -9.85138       32.03138
H         88.78091      -11.09385       29.96393
H         89.09923       -9.36002       29.63425
H         86.80268       -9.15061       28.60448
H         86.46098      -10.87254       29.04050
H         88.32892      -11.61592       27.55525
H         88.67181       -9.89695       27.11896
H         87.29277      -10.99675       25.48815
H         86.10367      -11.35405       26.65011
H         86.43051       -9.73009       26.22834
N         86.50690       -7.30455       33.58560
C         85.68229       -7.10034       34.77219
C         84.97356       -5.74397       34.73335
O         84.18025       -5.47843       35.62514
C         86.52880       -7.31707       36.03916
C         87.69350       -6.37607       36.13136
O         88.83497       -6.80878       36.13861
O         87.48227       -5.05212       36.21393
H         87.30442       -6.67046       33.44438
H         84.86638       -7.85480       34.80850
H         86.90800       -8.36358       36.02480
H         85.89465       -7.19889       36.94335
N         85.16144       -4.86195       33.70599
C         84.39963       -3.63895       33.52929
C         84.53563       -2.63892       34.65289
O         83.51316       -2.26242       35.20859
H         85.82165       -5.08281       32.95062
H         83.32790       -3.90551       33.39688
H         84.73581       -3.14250       32.59238
N         85.74793       -2.11974       35.00751
C         85.89099       -1.04115       35.99021
C         86.52634        0.22000       35.39339
O         86.62895        1.20972       36.10384
C         86.65451       -1.54044       37.23480
C         88.13245       -1.78378       37.02645
N         89.04155       -1.15398       37.80663
O         88.51588       -2.56668       36.17256
H         86.58907       -2.49535       34.55069
H         84.88367       -0.74077       36.35080
H         86.17578       -2.47970       37.58753
H         86.53049       -0.78651       38.04228
H         88.74696       -0.49522       38.54200
H         90.04719       -1.33792       37.69009
N         86.98904        0.25297       34.10852
C         87.60636        1.40330       33.47148
C         89.10872        1.25000       33.29466
O         89.70210        2.15267       32.72096
H         86.90887       -0.57684       33.52800
H         87.45158        2.32310       34.07443
H         87.11391        1.56223       32.48761
N         89.80959        0.21763       33.85748
C         91.26773        0.22800       33.98369
C         91.89750       -1.11470       33.66384
O         91.47503       -2.12645       34.20681
C         91.60206        0.60108       35.43997
C         91.13998        2.00804       35.73106
C         90.03747        2.24642       36.56667
C         91.80093        3.09699       35.13789
C         89.59656        3.55337       36.79498
C         91.36654        4.40227       35.37630
C         90.25867        4.63484       36.20313
O         89.82199        5.88927       36.43291
H         89.30064       -0.50308       34.38983
H         91.73161        1.00158       33.33343
H         92.69416        0.53722       35.64100
H         91.09789       -0.12688       36.10549
H         89.50544        1.42358       37.02292
H         92.65505        2.93380       34.49198
H         88.73600        3.72486       37.42891
H         91.88903        5.23005       34.91364
H         90.25230        6.66253       36.04063
N         93.00381       -1.16373       32.86644
C         93.79293       -2.36618       32.62381
C         95.16555       -2.17221       33.24427
O         95.83823       -1.20076       32.92430
C         93.90483       -2.65451       31.09747
C         92.49766       -2.96144       30.52531
C         94.87970       -3.82535       30.82753
C         92.47914       -3.18614       29.01241
H         93.35538       -0.28395       32.45666
H         93.32311       -3.25390       33.09654
H         94.31687       -1.75101       30.59407
H         91.82632       -2.10241       30.73747
H         92.07620       -3.86167       31.02525
H         95.01476       -4.00024       29.74246
H         95.89447       -3.59620       31.21364
H         94.51884       -4.75924       31.30581
H         93.05957       -4.08601       28.72544
H         91.43409       -3.35032       28.67958
H         92.88598       -2.29715       28.48648
N         95.66818       -3.11701       34.08925
C         97.01482       -3.06982       34.64418
C         97.89129       -4.10593       33.96262
O         97.40886       -4.85475       33.12425
C         96.96413       -3.30123       36.16698
O         96.45238       -4.57748       36.44657
H         95.09822       -3.95141       34.28441
H         97.47749       -2.07731       34.45243
H         96.31581       -2.53062       36.63765
H         97.99034       -3.21131       36.58898
H         96.62335       -4.74844       37.40904
N         99.21607       -4.18033       34.26196
C        100.11944       -5.15695       33.66590
C         99.72551       -6.57024       34.04553
O         99.72851       -7.43541       33.18191
C        101.55807       -4.89670       34.12058
H         99.60112       -3.50445       34.94008
H        100.11562       -5.04783       32.55713
H        101.65229       -4.98985       35.22284
H        102.24511       -5.62356       33.63483
H        101.86803       -3.87418       33.81516
N         99.38825       -6.87958       35.33169
C         99.07294       -8.23893       35.76552
C         97.86725       -8.85829       35.06627
O         97.67710      -10.05690       35.22176
C         98.83178       -8.26313       37.28008
H         99.39347       -6.12201       36.03254
H         99.96027       -8.86896       35.53628
H         99.71815       -7.86125       37.81465
H         97.94841       -7.63638       37.53545
H         98.64864       -9.29957       37.63443
N         96.99819       -8.12383       34.31400
C         95.84794       -8.70348       33.62332
C         95.85425       -8.42142       32.11914
O         94.95008       -8.90015       31.44761
C         94.53832       -8.18904       34.25021
C         94.42845       -6.66341       34.21111
C         93.03549       -6.23539       34.51212
O         92.50400       -6.48449       35.58297
O         92.36237       -5.59689       33.54526
H         97.13280       -7.10733       34.25458
H         95.84199       -9.80927       33.73362
H         94.45295       -8.52644       35.30649
H         93.69083       -8.63898       33.68501
H         94.66619       -6.30049       33.18889
H         95.13854       -6.20151       34.92423
N         96.81054       -7.65610       31.51717
C         96.81981       -7.35371       30.09973
H         97.76133       -7.73242       29.65050
H         95.96379       -7.80856       29.55904
H         96.77394       -6.25293       29.96052
H         97.57171       -7.25000       32.06820
Ca        90.19445       -5.15138       33.59565
O         92.38010       -2.87729       36.91254
H         92.10620       -2.83696       37.86301
H         93.07156       -2.17435       36.82380
O         90.16335       -4.79742       37.92525
H         90.49164       -5.64115       38.32606
H         89.47737       -4.46973       38.55951

Ca 1.0



