%chk=holoCaM.loop2.water2.frame207.chk
%nprocshared=20
%mem=10GB
%nosave
#b3lyp/svp scf=(tight,noincore,xqc) Test 
#IOP(5/87=12) Density=Current Pop=(MK,readradii) iop(6/33=2) iop(6/42=6)

holoCaM.loop2.water2.frame207 

   -2  1 
C          7.31855       63.15227       82.04384
C          6.80319       62.02995       82.89503
O          7.51222       61.06131       83.11279
H          8.35266       62.94750       81.69551
H          6.65586       63.29736       81.16624
H          7.32971       64.08721       82.64599
N          5.56772       62.12566       83.44896
C          5.02998       61.15776       84.39668
C          4.76308       59.80141       83.74782
O          4.07746       59.75919       82.73563
C          3.71634       61.71221       84.98769
C          3.28163       61.00177       86.23391
O          2.12264       61.35332       86.81925
O          3.99694       60.16626       86.76320
H          5.01900       62.97555       83.24237
H          5.75975       61.06856       85.23217
H          2.91486       61.66929       84.21828
H          3.85515       62.77310       85.28554
N          5.22671       58.64837       84.31506
C          4.97447       57.31342       83.77231
C          4.14491       56.42947       84.70604
O          3.78712       55.33818       84.28343
C          6.31756       56.62644       83.49058
H          5.76797       58.72317       85.18193
H          4.41204       57.39159       82.81741
H          6.92225       57.23466       82.78585
H          6.89339       56.50432       84.43500
H          6.16341       55.62048       83.04412
N          3.84953       56.78763       85.99146
C          3.17811       55.89376       86.93862
C          2.11936       56.57839       87.81012
O          1.48583       55.87850       88.58880
C          4.25225       55.23394       87.83028
C          5.19133       56.24436       88.43211
O          4.71281       57.24834       89.18129
O          6.38834       56.18586       88.19966
H          4.24619       57.65831       86.36145
H          2.65063       55.07700       86.39818
H          4.85068       54.53526       87.20637
H          3.76982       54.63616       88.63379
N          1.88200       57.91920       87.77374
C          0.92653       58.59005       88.64025
C          1.23452       58.38380       90.10956
O          0.36609       57.88779       90.81330
H          2.39031       58.50442       87.11018
H         -0.09749       58.21971       88.41302
H          0.94244       59.68034       88.42968
N          2.44019       58.74294       90.64684
C          2.75620       58.58869       92.06956
C          3.05195       59.92845       92.75330
O          3.45772       59.92479       93.90723
C          3.86199       57.52918       92.28627
C          5.27333       57.88138       91.90093
N          6.25184       56.97512       92.13325
O          5.54743       58.96243       91.40331
H          3.15916       59.14027       90.02509
H          1.88105       58.16234       92.60562
H          3.56809       56.59899       91.74994
H          3.89346       57.29332       93.37145
H          6.03137       56.05808       92.54750
H          7.23295       57.17974       91.91877
N          2.77820       61.11512       92.13429
C          2.88861       62.42289       92.76819
C          4.28822       63.00993       92.85739
O          4.38534       64.15816       93.26428
H          2.33499       61.09918       91.20675
H          2.40027       62.40422       93.76709
H          2.31536       63.13835       92.13956
N          5.40826       62.32154       92.49912
C          6.75782       62.89963       92.51245
C          7.42237       62.71429       91.15379
O          6.80418       62.15324       90.26357
C          7.59303       62.23924       93.63899
C          7.07439       62.66330       95.01559
O          7.55748       60.83820       93.54254
H          5.31586       61.33908       92.21315
H          6.73192       63.99451       92.70695
H          8.64833       62.59090       93.60662
H          8.11911       60.58605       92.76458
H          6.02170       62.34591       95.16476
H          7.70198       62.21162       95.81244
H          7.13418       63.76969       95.11736
N          8.70637       63.13674       90.93491
C          9.42259       62.87641       89.68928
C         10.51145       61.85906       89.99337
O         11.42441       62.14766       90.75369
C          9.98336       64.18465       89.05658
C          8.83042       65.19014       88.79628
C         10.74227       63.85979       87.75221
C          9.28597       66.52184       88.19290
H          9.22165       63.60161       91.69620
H          8.73158       62.42883       88.94248
H         10.70106       64.64815       89.76974
H          8.33267       65.42150       89.76247
H          8.07612       64.73768       88.11825
H         11.21546       64.76461       87.32194
H         11.56943       63.14864       87.94534
H         10.05621       63.41624       86.99972
H          9.70358       66.38306       87.17482
H          8.41242       67.20072       88.09777
H         10.04481       67.00529       88.84327
N         10.42645       60.61081       89.45535
C         11.36863       59.53214       89.70715
C         12.67817       59.78915       88.97393
O         12.78888       60.79066       88.28893
C         10.74025       58.17954       89.27692
C          9.61644       57.74387       90.20168
O          8.40626       58.35025       90.26422
O          9.80825       56.78064       90.92689
H          9.63818       60.40924       88.84226
H         11.57983       59.46454       90.79788
H         11.52491       57.40062       89.36551
H         10.40932       58.19290       88.21490
N         13.73330       58.93536       89.09161
C         15.00716       59.13738       88.40450
C         14.88871       59.09060       86.87703
O         15.31950       60.05484       86.26179
C         16.07027       58.13943       88.91353
C         17.41192       58.32330       88.23130
C         18.06706       59.57060       88.24089
C         18.02064       57.24049       87.57238
C         19.29562       59.72987       87.59305
C         19.25590       57.40224       86.93689
C         19.89066       58.64650       86.94348
H         13.63814       58.12369       89.72193
H         15.37939       60.14710       88.68656
H         15.71152       57.09843       88.77658
H         16.20410       58.30218       90.00490
H         17.62854       60.42543       88.73787
H         17.54344       56.26877       87.55360
H         19.78676       60.69463       87.59495
H         19.72072       56.56239       86.43709
H         20.84391       58.77122       86.44613
N         14.34889       58.04186       86.17363
C         14.30143       57.99679       84.71326
C         13.49775       59.15077       84.13945
O         13.89012       59.69348       83.11538
C         13.70342       56.61232       84.41391
C         12.84139       56.33771       85.62445
C         13.71724       56.87243       86.75541
H         15.31436       58.02552       84.25346
H         13.20973       56.50422       83.42375
H         14.53027       55.86768       84.46650
H         11.92965       56.96528       85.54096
H         12.51389       55.28401       85.75331
H         13.05062       57.09063       87.60727
H         14.50578       56.14202       87.03656
N         12.39203       59.61162       84.77442
C         11.58165       60.72767       84.29728
C         12.40870       62.00167       84.29526
O         12.51652       62.64599       83.26197
C         10.32636       60.86592       85.18532
C          9.47846       59.57771       85.09820
C          8.36301       59.52744       86.08282
O          8.06430       60.57050       86.87237
O          7.82194       58.45407       86.29080
H         12.13475       59.16114       85.66270
H         11.22380       60.52029       83.26356
H          9.71187       61.73487       84.86336
H         10.64627       61.03171       86.23910
H         10.10249       58.70314       85.35856
H          9.10086       59.40398       84.07115
N         13.05754       62.39866       85.42142
C         13.89431       63.57495       85.48530
H         14.72037       63.49442       84.74757
H         13.29053       64.48328       85.28386
H         14.33977       63.66107       86.50104
H         12.97714       61.82564       86.26245
Ca         7.39584       59.75400       88.82840
O          5.90134       62.93580       87.31735
H          5.54297       63.85701       87.26332
H          6.80325       62.99404       86.91482
O          4.20726       61.63528       89.38858
H          3.30022       61.34371       89.12674
H          4.13915       62.62095       89.44406

Ca 1.0



