%chk=holoCaM-CaMKII.loop3.water2.frame172.chk
%nprocshared=20
%mem=10GB
%nosave
#b3lyp/svp scf=(tight,noincore,xqc) Test 
#IOP(5/87=12) Density=Current Pop=(MK,readradii) iop(6/33=2) iop(6/42=6)

holoCaM-CaMKII.loop3.water2.frame172 

   0  1 
C        103.29983       44.03776       23.90047
C        102.48901       43.20614       24.84796
O        101.65905       43.74614       25.56408
H        104.37930       43.92253       24.13486
H        103.11606       43.69604       22.85989
H        103.02686       45.11115       23.97990
N        102.70180       41.86480       24.91071
C        101.97613       40.95897       25.78746
C        102.94944       40.46657       26.83675
O        103.34572       39.30938       26.83374
C        101.34642       39.84126       24.93409
C        100.53930       38.88978       25.76510
O        100.81167       37.70175       25.76964
O         99.50535       39.34070       26.49754
H        103.44317       41.45992       24.31687
H        101.14818       41.47901       26.32020
H        102.13918       39.28736       24.38522
H        100.66640       40.29634       24.18580
N        103.39860       41.35463       27.76526
C        104.39765       41.04021       28.77850
C        103.91327       39.94385       29.70717
O        104.57927       38.92145       29.79895
C        104.77275       42.29799       29.59596
C        105.39245       43.39801       28.71336
C        105.81704       44.61109       29.55130
C        106.47244       45.72096       28.70921
N        105.53983       46.33380       27.75946
H        103.01313       42.30979       27.72688
H        105.32463       40.69191       28.26874
H        105.52005       42.00503       30.36645
H        103.87521       42.70137       30.11458
H        104.65723       43.72230       27.95308
H        106.28495       42.98851       28.19190
H        106.56050       44.27015       30.30457
H        104.94001       45.02894       30.09246
H        107.35336       45.31377       28.16490
H        106.83589       46.50916       29.40479
H        104.70773       46.71423       28.26631
H        106.02377       47.12217       27.27213
H        105.23399       45.64818       27.03383
N        102.76679       40.08566       30.43660
C        102.30806       39.06468       31.38145
C        101.99423       37.71564       30.72033
O        101.79748       36.75004       31.44533
C        101.10822       39.56363       32.21990
C         99.86803       39.72910       31.39626
O         98.89254       39.03131       31.62547
O         99.83192       40.59211       30.36621
H        102.24336       40.96825       30.34805
H        103.14511       38.89949       32.09513
H        101.35724       40.52821       32.71057
H        100.90485       38.81786       33.02051
N        101.96331       37.56138       29.36390
C        101.82416       36.27646       28.70304
C        100.48830       35.62903       28.94580
O        100.47064       34.51925       29.45983
H        102.09523       38.37587       28.75499
H        102.64807       35.60650       29.03650
H        101.93933       36.41156       27.60893
N         99.32745       36.24715       28.57177
C         98.01595       35.61964       28.73888
C         97.28635       35.39963       27.41702
O         96.23784       34.76836       27.44299
C         97.18220       36.40236       29.77437
C         96.52488       37.72580       29.32240
N         95.09760       37.57744       29.10442
O         97.11106       38.28861       28.18758
H         99.38568       37.19220       28.16750
H         98.16152       34.60867       29.17723
H         97.84551       36.61449       30.64031
H         96.38321       35.73857       30.17167
H         94.65309       37.29011       30.00587
H         94.72750       38.52859       28.88799
N         97.77538       35.86339       26.22523
C         97.16367       35.57830       24.93723
C         96.64663       36.80314       24.20852
O         96.16409       36.63215       23.10119
H         98.64127       36.41651       26.20483
H         96.30617       34.88021       25.04305
H         97.92438       35.07759       24.29969
N         96.67095       38.05620       24.75764
C         96.09688       39.21655       24.06816
C         96.43300       40.53894       24.74733
O         96.92062       40.56140       25.86416
C         94.55241       39.09508       23.91202
C         93.82420       38.77586       25.20539
C         93.14247       39.77286       25.92456
C         93.78852       37.45269       25.68376
C         92.45604       39.45025       27.10422
C         93.09876       37.13181       26.85208
C         92.43076       38.13015       27.57033
O         91.77268       37.83223       28.70895
H         97.11033       38.18601       25.67343
H         96.57298       39.28255       23.06667
H         94.28391       38.31249       23.17378
H         94.16389       40.04220       23.47927
H         93.14725       40.79906       25.58062
H         94.27544       36.65420       25.14937
H         91.94331       40.22559       27.65861
H         93.08799       36.10522       27.19839
H         91.75014       36.93373       29.06837
N         96.23675       41.70080       24.04680
C         96.58066       43.02177       24.56741
C         95.38659       43.96277       24.51342
O         94.37967       43.65155       23.89859
C         97.80241       43.61867       23.79559
C         97.52026       43.80988       22.27883
C         99.03351       42.73120       24.03064
C         98.67067       44.47166       21.51223
H         95.87341       41.63920       23.08647
H         96.86448       42.93492       25.63524
H         98.03060       44.61601       24.22611
H         96.62963       44.46273       22.15835
H         97.30712       42.83357       21.79575
H         99.94299       43.18280       23.59043
H         99.21832       42.61993       25.11892
H         98.88240       41.72673       23.58584
H         99.57834       43.83426       21.50890
H         98.37129       44.61657       20.45257
H         98.91480       45.46174       21.95175
N         95.46089       45.15474       25.17048
C         94.42770       46.18374       25.14462
C         95.04047       47.49512       24.66869
O         96.21488       47.52176       24.34287
C         93.83089       46.32722       26.55584
O         94.80769       46.73372       27.47966
H         96.29936       45.34528       25.73317
H         93.60006       45.90656       24.45707
H         93.37100       45.35455       26.85351
H         93.00613       47.06971       26.56558
H         94.96094       45.97678       28.10276
N         94.30378       48.64155       24.63112
C         94.88497       49.93772       24.28577
C         96.00770       50.29168       25.24721
O         97.09542       50.62659       24.79772
C         93.81101       51.02995       24.33120
H         93.30820       48.59790       24.89151
H         95.27963       49.90816       23.24530
H         94.25432       52.00952       24.04850
H         93.00157       50.79369       23.60829
H         93.37068       51.11578       25.34736
N         95.81276       50.19961       26.59311
C         96.82459       50.52611       27.59354
C         98.12158       49.76984       27.37188
O         99.16217       50.40954       27.30759
C         96.28986       50.22500       28.99912
H         94.89240       49.86650       26.92187
H         97.04083       51.61718       27.54559
H         97.04565       50.50187       29.76523
H         95.36844       50.81545       29.18972
H         96.04929       49.14525       29.10720
N         98.13892       48.41273       27.23611
C         99.37600       47.65426       27.04695
C        100.12479       48.15922       25.82531
O        101.25606       48.60320       25.96784
C         99.09963       46.14054       26.90962
C         98.48312       45.52993       28.18030
C         98.22529       44.05926       28.01443
O         96.97447       43.57713       28.14556
O         99.14593       43.29198       27.78188
H         97.23755       47.91481       27.25643
H        100.02636       47.79863       27.93920
H        100.06191       45.62110       26.70902
H         98.43072       45.96962       26.04577
H         97.52180       46.02696       28.42168
H         99.17598       45.67607       29.03603
N         99.54523       48.15084       24.59552
C        100.21113       48.67406       23.42361
H        101.14525       48.10653       23.22991
H         99.54511       48.58437       22.53900
H        100.45154       49.74851       23.57534
H         98.59473       47.77967       24.48772
Ca        98.15993       40.10132       28.99654
O         97.06412       42.46684       31.12659
H         97.74262       42.39527       31.84394
H         96.22640       42.14354       31.54411
O         94.94888       41.23697       29.13351
H         94.12809       40.87532       29.55305
H         94.68828       41.42632       28.19738

Ca 1.0



