%chk=holoCaM-CaMKII.loop1.water2.frame229.chk
%nprocshared=20
%mem=10GB
%nosave
#b3lyp/svp scf=(tight,noincore,xqc) Test 
#IOP(5/87=12) Density=Current Pop=(MK,readradii) iop(6/33=2) iop(6/42=6)

holoCaM-CaMKII.loop1.water2.frame229 

   0  1 
C         57.99402       38.48404       48.56699
C         56.95611       37.98256       49.52135
O         57.29216       37.31764       50.48821
H         59.00739       38.15256       48.87407
H         57.77598       38.10027       47.54849
H         57.96685       39.59487       48.55023
N         55.65399       38.30083       49.31425
C         54.57794       37.90759       50.21137
C         54.39490       36.38558       50.19665
O         54.20510       35.83773       49.11993
C         53.30534       38.69202       49.80257
C         52.25258       38.64164       50.84854
O         52.37748       37.77001       51.84656
O         51.29429       39.39506       50.80858
H         55.43132       38.89624       48.50013
H         54.84735       38.25409       51.23666
H         52.90441       38.37765       48.81562
H         53.59562       39.76379       49.74281
N         54.45957       35.64118       51.35004
C         54.43339       34.17167       51.37049
C         53.18183       33.56460       52.00010
O         53.01925       32.35882       51.86369
C         55.66745       33.61210       52.11950
C         57.03006       34.07362       51.58652
C         57.25106       33.68036       50.12162
C         58.66655       34.03568       49.65524
N         58.84861       33.67985       48.24865
H         54.56593       36.13805       52.24138
H         54.43739       33.79374       50.32640
H         55.64407       32.50014       52.08512
H         55.60583       33.91377       53.18852
H         57.81295       33.59330       52.21433
H         57.12860       35.17011       51.70974
H         56.51961       34.21383       49.47969
H         57.10163       32.58431       50.00885
H         59.40800       33.48249       50.27431
H         58.84550       35.12593       49.78346
H         58.68063       32.65655       48.11054
H         58.18555       34.22838       47.65373
H         59.82790       33.90488       47.96092
N         52.25528       34.29798       52.68167
C         50.98591       33.73554       53.15758
C         49.79380       34.40782       52.47393
O         48.66821       34.01578       52.74954
C         50.88464       33.70939       54.71144
C         51.00662       35.01166       55.45108
O         50.87954       35.04029       56.66305
O         51.27868       36.14182       54.80752
H         52.43402       35.29834       52.83090
H         50.90592       32.66535       52.86354
H         51.67902       33.03965       55.10396
H         49.90269       33.26200       54.98110
N         49.96033       35.36718       51.51413
C         48.87059       35.94003       50.74556
C         47.90253       36.72156       51.59197
O         46.71614       36.42749       51.55274
H         50.90309       35.67968       51.24967
H         48.34163       35.13334       50.19101
H         49.29514       36.64074       49.99305
N         48.33863       37.76186       52.35574
C         47.44280       38.63772       53.10424
C         47.58278       40.08824       52.63854
O         47.01421       40.96398       53.27594
C         47.65500       38.45136       54.62731
C         48.93843       38.97331       55.19941
O         49.71546       39.60871       54.51745
O         49.21062       38.78321       56.50318
H         49.35090       37.95643       52.38875
H         46.38321       38.34565       52.93503
H         47.58154       37.36455       54.85001
H         46.83576       38.96638       55.17282
N         48.27331       40.41398       51.50024
C         48.37298       41.77452       50.99754
C         49.43002       42.61703       51.68453
O         49.48593       43.80091       51.38404
H         48.65919       39.67038       50.90197
H         47.37291       42.25690       51.05334
H         48.66147       41.74779       49.92416
N         50.32621       42.09529       52.57434
C         51.40576       42.88597       53.17135
C         52.70349       42.09161       53.28164
O         52.71140       40.88720       53.07083
C         50.99640       43.42273       54.56702
C         49.84973       44.43969       54.51062
O         50.67566       42.36829       55.43721
H         50.28514       41.09191       52.78003
H         51.63988       43.74513       52.50460
H         51.85907       43.96942       55.00455
H         49.78026       42.02494       55.18244
H         50.13715       45.30174       53.87278
H         48.92269       43.97995       54.10978
H         49.63934       44.81316       55.53548
N         53.86280       42.74295       53.59262
C         55.15473       42.08379       53.74897
C         55.70634       42.45129       55.11616
O         56.03154       43.61360       55.32382
C         56.11834       42.53377       52.60028
C         55.54418       42.09937       51.22542
C         57.54354       41.97685       52.79567
C         56.33691       42.62517       50.02563
H         53.83489       43.76854       53.70349
H         55.04093       40.97856       53.69147
H         56.18497       43.64533       52.62051
H         54.51362       42.49755       51.11700
H         55.49474       40.98965       51.17190
H         57.54265       40.86796       52.77783
H         58.23614       42.35064       52.01605
H         57.97120       42.32827       53.75145
H         56.37760       43.73514       50.04987
H         57.36706       42.21804       49.99867
H         55.83331       42.31000       49.08771
N         55.83707       41.51793       56.10637
C         56.45510       41.84819       57.39215
C         57.93862       42.09890       57.17782
O         58.43457       41.81721       56.09655
C         56.26545       40.73556       58.46375
C         54.79415       40.40770       58.74387
O         56.96541       39.56641       58.13123
H         55.49007       40.56792       55.93296
H         55.96440       42.76926       57.77921
H         56.69230       41.10969       59.41934
H         56.51164       39.16027       57.35199
H         54.24072       41.31958       59.04960
H         54.31734       39.97139       57.84528
H         54.72646       39.65594       59.55887
N         58.72475       42.62656       58.15571
C         60.15211       42.84563       57.92975
C         60.87650       41.50736       57.75759
O         61.90093       41.46585       57.09104
C         60.76117       43.72117       59.04949
C         62.20443       44.13718       58.73866
O         59.98480       44.88686       59.17371
H         58.29440       42.90175       59.05213
H         60.24303       43.42814       56.98401
H         60.72906       43.14327       60.00307
H         60.11181       45.22610       60.09800
H         62.58756       44.79402       59.54808
H         62.87262       43.25627       58.66582
H         62.24159       44.70471       57.78286
N         60.38424       40.36837       58.32937
C         60.98225       39.04626       58.16486
C         60.86546       38.58577       56.72201
O         61.87629       38.25056       56.12050
C         60.29495       38.04923       59.12777
C         60.92591       36.64641       59.11242
C         60.33286       35.78184       60.23548
C         60.96102       34.38224       60.26995
N         60.44385       33.60814       61.39942
H         59.54746       40.44395       58.92696
H         62.05337       39.09231       58.46612
H         59.20813       37.96878       58.90515
H         60.40713       38.46373       60.15423
H         62.02138       36.73618       59.28098
H         60.75376       36.16410       58.12515
H         59.23293       35.68819       60.10087
H         60.53084       36.28227       61.20915
H         62.06570       34.47089       60.37057
H         60.73563       33.84959       59.31950
H         60.88113       32.65842       61.39555
H         60.68561       34.08386       62.29960
H         59.40581       33.50527       61.32483
N         59.64864       38.55035       56.10508
C         59.45079       38.08724       54.73190
C         60.24868       38.91175       53.73448
O         60.54993       38.39709       52.66588
C         57.95078       38.10477       54.34509
C         57.12546       37.12832       55.20276
C         55.65999       37.19213       54.88130
O         55.05903       36.17735       54.57497
O         54.98660       38.35260       54.98201
H         58.83435       38.86708       56.64417
H         59.81738       37.03799       54.66883
H         57.83124       37.81476       53.27770
H         57.56316       39.14109       54.47078
H         57.23890       37.36209       56.27548
H         57.49767       36.09302       55.04489
N         60.63656       40.18876       54.00743
C         61.44958       40.95743       53.09175
H         62.43004       40.45345       52.95184
H         60.93817       41.05686       52.11127
H         61.63085       41.97128       53.50776
H         60.35416       40.63640       54.88915
Ca        51.71048       38.07478       53.89599
O         52.09152       40.26067       56.64312
H         52.34872       41.13708       57.02614
H         51.70062       39.76680       57.40650
O         53.33677       37.23762       57.23063
H         53.31748       37.07058       58.20590
H         52.39492       37.42590       56.99212

Ca 1.0



