%chk=holoCaM-CaMKII.loop2.water2.frame41.chk
%nprocshared=20
%mem=10GB
%nosave
#b3lyp/svp scf=(tight,noincore,xqc) Test 
#IOP(5/87=12) Density=Current Pop=(MK,readradii) iop(6/33=2) iop(6/42=6)

holoCaM-CaMKII.loop2.water2.frame41 

   -2  1 
C          4.35184       87.99211       20.36774
C          3.28496       88.59909       21.23504
O          2.32230       89.15130       20.72484
H          5.33645       88.44783       20.60536
H          4.40965       86.90030       20.57155
H          4.13249       88.13964       19.29016
N          3.40083       88.50199       22.58375
C          2.40090       88.96433       23.54026
C          2.17163       90.47220       23.48981
O          3.12133       91.23043       23.62569
C          2.85555       88.55115       24.95204
C          1.86990       88.94941       25.99801
O          2.25425       89.75537       27.00582
O          0.72006       88.54882       25.93660
H          4.23902       88.01981       22.94724
H          1.44309       88.43725       23.33068
H          3.83924       89.01482       25.18311
H          2.97081       87.44663       24.98850
N          0.90051       90.96125       23.36820
C          0.55100       92.38032       23.38797
C         -0.39371       92.74541       24.54606
O         -0.78196       93.90361       24.61894
C         -0.12107       92.72850       22.05191
H          0.12864       90.28719       23.26855
H          1.46281       93.00805       23.48495
H         -0.36945       93.81038       22.00316
H          0.56008       92.49150       21.20702
H         -1.06001       92.14795       21.92312
N         -0.83534       91.82593       25.46126
C         -1.91917       92.10572       26.41894
C         -1.82496       91.34178       27.75042
O         -2.69263       91.54557       28.58867
C         -3.27016       91.81517       25.72084
C         -3.39082       90.39924       25.21070
O         -4.31777       90.09751       24.47685
O         -2.43697       89.48919       25.49123
H         -0.53550       90.85560       25.33220
H         -1.90923       93.18662       26.68356
H         -3.33251       92.49138       24.83969
H         -4.12772       92.05392       26.38642
N         -0.81919       90.46413       28.03027
C         -0.67980       89.73952       29.28966
C         -1.74995       88.69148       29.58293
O         -1.67442       88.09595       30.64835
H         -0.07139       90.34249       27.34989
H         -0.65561       90.47781       30.11991
H          0.29715       89.20770       29.28439
N         -2.77709       88.41513       28.72783
C         -3.87729       87.50121       29.05233
C         -3.52074       86.00510       29.07308
O         -4.42341       85.21084       29.30141
C         -5.08439       87.77346       28.12353
C         -4.88619       87.46978       26.66189
N         -5.90844       87.67742       25.80293
O         -3.82225       87.04187       26.24406
H         -2.84071       88.94912       27.85542
H         -4.24962       87.76887       30.06654
H         -5.35872       88.84768       28.21574
H         -5.95005       87.17516       28.48083
H         -6.81117       88.04305       26.13863
H         -5.80296       87.47234       24.80257
N         -2.25096       85.53618       28.89784
C         -1.90304       84.12223       29.01135
C         -2.25564       83.25848       27.80786
O         -1.98763       82.06732       27.87764
H         -1.47920       86.20303       28.79114
H         -2.36459       83.70513       29.93432
H         -0.80176       84.03876       29.13222
N         -2.81617       83.76263       26.67044
C         -3.11770       82.95524       25.48225
C         -2.38139       83.49171       24.26000
O         -1.72453       84.51810       24.36275
C         -4.64736       82.97355       25.22121
C         -5.41654       82.28784       26.34997
O         -5.11483       84.29343       25.09095
H         -3.03758       84.76408       26.63172
H         -2.79310       81.90086       25.62123
H         -4.89091       82.39629       24.29988
H         -4.92694       84.58136       24.15987
H         -5.09028       81.22990       26.44387
H         -5.25262       82.80716       27.31727
H         -6.50375       82.29942       26.12136
N         -2.50574       82.87237       23.04431
C         -2.00671       83.46057       21.80470
C         -3.22926       83.88908       21.02166
O         -3.98718       83.03358       20.58153
C         -1.15138       82.47671       20.94353
C          0.00796       81.83553       21.74006
C         -0.61637       83.21536       19.69320
C          0.74695       80.75479       20.93563
H         -3.07200       82.01309       22.97648
H         -1.38495       84.35389       22.03534
H         -1.81602       81.64688       20.61359
H         -0.41095       81.33470       22.63845
H          0.72914       82.61216       22.07420
H         -0.09157       82.53285       18.99772
H         -1.44190       83.65982       19.10704
H          0.07838       84.03049       19.99077
H          1.51813       80.27216       21.56998
H          0.03354       79.97316       20.59389
H          1.26647       81.17717       20.05197
N         -3.51403       85.20584       20.85023
C         -4.68558       85.65477       20.10600
C         -4.44829       85.45837       18.61723
O         -3.36562       85.03510       18.23941
C         -4.98348       87.13648       20.41184
C         -5.30150       87.35819       21.86594
O         -6.39501       87.78955       22.19451
O         -4.38328       87.09648       22.81314
H         -2.89288       85.90141       21.28474
H         -5.57445       85.06659       20.42764
H         -5.87013       87.45392       19.82476
H         -4.11656       87.77135       20.12674
N         -5.41887       85.73649       17.70056
C         -5.16635       85.63187       16.26796
C         -4.16194       86.68889       15.80997
O         -3.23971       86.30681       15.10596
C         -6.46509       85.62044       15.43762
C         -6.17823       85.41811       13.96200
C         -6.62694       86.36096       13.02237
C         -5.45846       84.29266       13.50754
C         -6.35852       86.18608       11.66099
C         -5.18316       84.12921       12.14745
C         -5.63367       85.07433       11.22456
H         -6.35476       86.01811       18.02824
H         -4.71879       84.63005       16.08951
H         -7.04723       86.54725       15.59529
H         -7.09407       84.77364       15.78901
H         -7.18647       87.23075       13.34184
H         -5.09851       83.54127       14.19763
H         -6.71089       86.91510       10.94364
H         -4.61965       83.26847       11.80947
H         -5.42186       84.94401       10.17128
N         -4.20599       88.01152       16.18166
C         -3.16934       88.98465       15.83894
C         -1.76236       88.65270       16.35000
O         -0.84791       89.40466       16.04546
C         -3.64431       90.27677       16.52187
C         -5.14582       90.11023       16.50269
C         -5.28809       88.64643       16.90285
H         -3.16659       89.08457       14.73112
H         -3.35258       90.25618       17.59943
H         -3.25188       91.21388       16.07302
H         -5.70843       90.81899       17.14717
H         -5.48932       90.22648       15.44924
H         -5.11289       88.52310       17.98776
H         -6.29667       88.30183       16.61469
N         -1.52228       87.57580       17.15745
C         -0.22194       87.23180       17.72714
C          0.27702       85.88031       17.22377
O          1.40379       85.52679       17.54274
C         -0.35330       87.20307       19.26588
C         -0.86856       88.54991       19.79111
C         -1.21041       88.54399       21.24558
O         -1.70122       89.55042       21.72946
O         -1.04509       87.46071       22.02778
H         -2.30567       86.98769       17.44282
H          0.53674       87.98997       17.43407
H          0.62125       86.95853       19.74427
H         -1.08369       86.40815       19.53725
H         -1.81231       88.81423       19.27190
H         -0.11860       89.34337       19.58725
N         -0.49207       85.07388       16.43524
C         -0.05787       83.80776       15.88778
H          0.99183       83.56867       16.15060
H         -0.72027       82.99974       16.26359
H         -0.14580       83.84860       14.78063
H         -1.44620       85.34584       16.19881
Ca        -1.89640       87.85607       24.06221
O         -0.42565       86.06733       26.44800
H          0.07868       85.27083       26.15019
H          0.12382       86.43775       27.18294
O          0.87309       85.73843       23.52854
H          1.76085       85.50693       23.89949
H          0.95128       85.55344       22.55927

Ca 1.0



