%chk=holoCaM.loop4.water3.frame359.chk
%nprocshared=20
%mem=10GB
%nosave
#b3lyp/svp scf=(tight,noincore,xqc) Test 
#IOP(5/87=12) Density=Current Pop=(MK,readradii) iop(6/33=2) iop(6/42=6)

holoCaM.loop4.water3.frame359 

   -3  1 
C         87.63230      114.69160       46.96696
C         86.17377      114.70264       47.32606
O         85.85024      115.13259       48.42114
H         88.20204      114.05920       47.67701
H         87.79605      114.32250       45.93309
H         88.02152      115.73287       47.02163
N         85.23041      114.30417       46.42486
C         83.79784      114.49199       46.62737
C         82.99674      113.21171       46.39286
O         83.18548      112.56666       45.37140
C         83.35032      115.58359       45.64688
C         81.91157      115.92809       45.84164
O         81.12047      115.81341       44.91977
O         81.49203      116.36159       47.04390
H         85.54350      113.96631       45.50169
H         83.58984      114.87484       47.65245
H         83.53245      115.25762       44.59930
H         83.94554      116.50364       45.83653
N         82.01783      112.84259       47.27519
C         81.15148      111.66998       47.12159
C         79.67362      112.05035       46.90395
O         78.95663      111.21288       46.37291
C         81.36005      110.71808       48.35429
C         82.78015      110.09130       48.27155
C         80.27884      109.62250       48.47095
C         83.15330      109.18466       49.44746
H         81.87064      113.43533       48.09932
H         81.43052      111.11369       46.19943
H         81.27850      111.32568       49.28438
H         83.53522      110.90445       48.23217
H         82.86545      109.49502       47.33641
H         80.27420      108.96490       47.57805
H         80.42730      109.00811       49.38184
H         79.27563      110.07837       48.60589
H         83.09561      109.74854       50.39988
H         82.50066      108.28933       49.49998
H         84.19210      108.81604       49.31129
N         79.12187      113.22545       47.33200
C         77.67646      113.51332       47.23898
C         77.33569      114.89817       46.68088
O         76.15490      115.16070       46.49356
C         77.03035      113.35666       48.63647
C         77.84169      114.07768       49.66544
O         78.20300      115.35360       49.46233
O         78.36519      113.44635       50.57044
H         79.72171      113.88561       47.84219
H         77.17596      112.78628       46.56369
H         77.02131      112.27782       48.90652
H         75.97831      113.71334       48.63538
N         78.27797      115.84355       46.42048
C         77.96080      117.17633       45.93118
C         77.09762      117.94528       46.90833
O         76.01379      118.36655       46.52983
H         79.26119      115.62327       46.58036
H         77.45273      117.09779       44.94430
H         78.90430      117.74552       45.78259
N         77.52470      118.17130       48.18471
C         76.75771      118.93173       49.17265
C         77.51214      120.17011       49.65725
O         77.02347      120.82774       50.56588
C         76.31174      118.02463       50.35057
C         77.38883      117.44853       51.22843
O         78.56788      117.62727       50.99032
O         77.03988      116.69831       52.29023
H         78.44031      117.78887       48.46362
H         75.80869      119.30007       48.72560
H         75.71565      117.17940       49.94327
H         75.64370      118.62103       51.00838
N         78.67762      120.58560       49.07476
C         79.40492      121.77270       49.50423
C         80.12211      121.61927       50.83715
O         80.70644      122.59523       51.28377
H         79.03680      120.09120       48.24859
H         78.69976      122.63199       49.54247
H         80.18503      122.01207       48.74970
N         80.13987      120.43832       51.52062
C         80.79433      120.23992       52.81142
C         81.81997      119.11229       52.73492
O         81.97901      118.50509       51.68583
C         79.73046      119.88898       53.87416
C         78.65297      120.97299       54.00930
C         77.71347      120.66177       55.14639
N         76.96949      119.53063       55.14929
O         77.62457      121.44432       56.08067
H         79.65655      119.63505       51.12074
H         81.31915      121.16612       53.13238
H         80.22341      119.77651       54.86265
H         79.25097      118.92105       53.61181
H         78.07085      121.05452       53.06741
H         79.14626      121.95085       54.20317
H         77.02392      118.85673       54.37235
H         76.33553      119.32641       55.93615
N         82.53646      118.76778       53.84604
C         83.49619      117.66926       53.90467
C         82.98844      116.63566       54.90211
O         82.70710      116.98690       56.03930
C         84.89866      118.20565       54.30371
C         85.92184      117.06218       54.43942
C         85.41092      119.21091       53.25872
H         82.38921      119.30393       54.71379
H         83.60335      117.18185       52.91248
H         84.82810      118.72447       55.28563
H         86.91547      117.46736       54.72740
H         85.61520      116.34715       55.23114
H         86.02599      116.50938       53.48105
H         84.72061      120.07534       53.16877
H         86.40717      119.60219       53.55705
H         85.50532      118.72535       52.26274
N         82.88454      115.32489       54.53597
C         82.40352      114.25664       55.41025
C         83.55766      113.33020       55.77298
O         84.66108      113.52917       55.29573
C         81.26631      113.51670       54.66091
C         80.62003      112.36848       55.39119
N         79.94979      112.57035       56.54838
O         80.68243      111.24345       54.91728
H         83.19177      115.05624       53.59051
H         82.01523      114.68063       56.36166
H         81.67375      113.14100       53.69496
H         80.46092      114.24037       54.44136
H         79.87483      113.51230       56.95769
H         79.49781      111.78046       57.03153
N         83.38145      112.33148       56.68182
C         84.43950      111.41999       57.12392
C         84.85918      110.37776       56.07834
O         85.78891      109.63684       56.36642
C         84.03568      110.77453       58.47462
C         82.69983      110.06647       58.43634
C         81.60594      110.59798       59.14321
C         82.52384      108.89320       57.69330
C         80.35697      109.97625       59.08730
C         81.27441      108.26865       57.63871
C         80.18420      108.81324       58.33195
O         78.96995      108.23077       58.27896
H         82.46868      112.28349       57.14830
H         85.34568      112.02616       57.35025
H         83.97219      111.61163       59.20511
H         84.82778      110.08896       58.84576
H         81.71342      111.50601       59.72377
H         83.35440      108.46442       57.15822
H         79.52141      110.40583       59.62516
H         81.15458      107.36525       57.05442
H         78.80620      107.43037       57.76046
N         84.28087      110.28493       54.84265
C         84.77000      109.39300       53.78492
C         85.48503      110.19575       52.70017
O         85.87941      109.61593       51.69774
C         83.59948      108.59173       53.16704
C         82.92288      107.61832       54.14090
C         83.86434      106.54470       54.61871
O         84.12040      106.39859       55.93183
O         84.39089      105.78888       53.81744
H         83.51906      110.93136       54.59230
H         85.52555      108.67406       54.16944
H         83.96988      107.99422       52.30403
H         82.83655      109.30312       52.78284
H         82.07573      107.12348       53.61879
H         82.50682      108.18525       54.99447
N         85.73208      111.52679       52.86026
C         86.39956      112.37608       51.88983
C         87.69059      112.88207       52.50091
O         88.75306      112.61057       51.95972
C         85.48076      113.56093       51.54032
C         84.12784      113.10122       50.98644
C         83.17412      114.24249       50.79680
O         81.92123      113.96577       50.42560
O         83.49728      115.39857       51.00973
H         85.44477      111.98438       53.72609
H         86.63174      111.81249       50.95796
H         85.98449      114.22794       50.81058
H         85.27754      114.14660       52.46176
H         83.64820      112.40617       51.70822
H         84.26742      112.56780       50.02124
N         87.67185      113.61588       53.65019
C         88.87150      114.08967       54.29757
H         89.43545      114.75653       53.61372
H         88.59963      114.66128       55.21182
H         89.50230      113.22624       54.59584
H         86.77643      113.84709       54.09713
Ca        80.36997      115.51143       49.96513
O         83.80594      117.59139       49.18984
H         83.86644      118.36042       49.80910
H         84.59370      117.04127       49.41872
O         80.17702      116.03997       52.76844
H         79.60090      116.40993       53.48233
H         79.70830      115.21602       52.47996
O         81.17348      118.74329       48.46693
H         81.86914      119.42903       48.62241
H         80.94068      118.84423       47.50945

Ca 1.0



