%chk=holoCaM-CaMKII.loop1.water2.frame500.chk
%nprocshared=20
%mem=10GB
%nosave
#b3lyp/svp scf=(tight,noincore,xqc) Test 
#IOP(5/87=12) Density=Current Pop=(MK,readradii) iop(6/33=2) iop(6/42=6)

holoCaM-CaMKII.loop1.water2.frame500 

   0  1 
C          0.74979      106.02515      106.04161
C          0.77080      107.43836      106.53979
O          0.42432      108.34276      105.79651
H          0.05937      105.42088      106.66742
H          0.40720      105.98341      104.98588
H          1.77111      105.59460      106.10522
N          1.16833      107.70062      107.81277
C          1.19889      109.04432      108.37689
C          2.18870      109.91966      107.61909
O          3.34369      109.53204      107.50882
C          1.58681      108.97007      109.86779
C          1.38617      110.26829      110.59347
O          0.72034      111.27911      110.00793
O          1.61368      110.32016      111.79051
H          1.43774      106.90141      108.40855
H          0.17338      109.46245      108.31941
H          2.63909      108.63170      109.97217
H          0.92915      108.22827      110.37513
N          1.81004      111.12246      107.09177
C          2.71374      111.98829      106.33107
C          3.08155      113.26738      107.06986
O          3.96032      113.96193      106.57678
C          2.06622      112.34590      104.97207
C          1.93281      111.14995      104.01650
C          3.29860      110.74890      103.42676
C          3.21612      109.58575      102.42835
N          2.87300      108.32260      103.08272
H          0.84192      111.44310      107.24168
H          3.68643      111.47966      106.17405
H          2.64441      113.13773      104.44690
H          1.05534      112.76284      105.18054
H          1.28245      111.45661      103.16798
H          1.43600      110.31214      104.54090
H          4.02343      110.47930      104.22083
H          3.69958      111.63195      102.88106
H          4.21602      109.47426      101.95291
H          2.48114      109.81728      101.62561
H          1.91199      108.36111      103.48734
H          2.90310      107.55525      102.37359
H          3.56885      108.10960      103.83462
N          2.48747      113.65305      108.23581
C          2.89167      114.85056      108.97598
C          3.28933      114.54871      110.41926
O          3.66945      115.47825      111.11809
C          1.78542      115.92442      108.90310
C          0.46717      115.55326      109.52872
O         -0.44855      116.35918      109.50638
O          0.27615      114.35705      110.11395
H          1.70788      113.09514      108.59999
H          3.78741      115.30803      108.50221
H          1.60676      116.16507      107.83258
H          2.15438      116.84845      109.39986
N          3.24331      113.28873      110.94023
C          3.61433      112.97828      112.30946
C          2.72758      113.68127      113.31006
O          3.24660      114.39520      114.15598
H          2.95386      112.49911      110.35166
H          4.68019      113.24551      112.47699
H          3.51658      111.88431      112.47299
N          1.37544      113.50845      113.27977
C          0.46202      114.09954      114.25663
C         -0.29363      113.02407      115.04043
O         -1.19735      113.36402      115.79148
C         -0.45780      115.14043      113.57941
C         -1.42476      114.62762      112.55280
O         -2.14673      115.42204      111.97336
O         -1.51142      113.32090      112.25483
H          0.97652      112.91573      112.53640
H          1.02748      114.68561      115.01381
H          0.19214      115.89944      113.09003
H         -1.04853      115.65904      114.36548
N          0.09280      111.71396      114.99099
C         -0.47766      110.66200      115.81763
C         -1.78994      110.09138      115.32276
O         -2.22101      109.10733      115.90706
H          0.91917      111.45132      114.43582
H         -0.55065      110.99404      116.87630
H          0.23383      109.80726      115.79488
N         -2.47354      110.60582      114.25987
C         -3.66708      109.96846      113.69912
C         -3.46264      109.70295      112.18824
O         -2.13511      109.38161      111.95523
C         -4.91197      110.85895      113.94173
C         -5.26511      110.87346      115.42974
O         -4.70004      112.18729      113.52875
H         -2.13092      111.46155      113.80612
H         -3.83838      108.97813      114.17648
H         -5.79008      110.44042      113.40311
H         -4.23573      112.16930      112.65525
H         -6.17262      111.49115      115.59554
H         -5.47623      109.84069      115.78160
H         -4.43288      111.29715      116.03100
N         -4.28644      108.58996      111.69527
C         -4.31304      108.47289      110.21465
C         -5.67665      108.90144      109.66309
O         -6.63588      108.98713      110.41840
C         -3.89236      107.01566      109.81690
C         -2.45378      106.72723      110.34032
C         -3.96610      106.76157      108.29772
C         -1.98144      105.28317      110.15643
H         -5.20400      108.46962      112.17982
H         -3.56616      109.17226      109.77277
H         -4.59883      106.31239      110.31076
H         -2.41618      106.91449      111.43295
H         -1.72781      107.40984      109.84376
H         -4.99953      106.89497      107.92456
H         -3.27665      107.43683      107.74883
H         -3.70711      105.71303      108.05186
H         -2.67391      104.58613      110.67390
H         -1.89883      105.00447      109.08769
H         -0.97052      105.17165      110.60417
N         -5.81185      109.27310      108.35582
C         -7.06840      109.76602      107.79180
C         -7.47734      108.97170      106.56457
O         -6.74822      108.09400      106.12991
C         -6.93292      111.26923      107.42704
C         -6.59501      112.12802      108.64809
O         -5.98995      111.47029      106.40465
H         -4.97808      109.26127      107.75018
H         -7.89092      109.67228      108.53412
H         -7.90846      111.64186      107.05048
H         -5.08504      111.35043      106.79119
H         -6.54115      113.19696      108.35120
H         -7.37560      112.01177      109.42908
H         -5.61394      111.82557      109.06984
N         -8.65196      109.25858      105.94010
C         -9.07174      108.65797      104.67708
C         -8.09930      109.03987      103.56853
O         -7.66525      108.16686      102.83096
C        -10.50701      109.10925      104.29800
C        -11.54296      108.58621      105.30416
O        -10.57823      110.51056      104.22250
H         -9.26194      109.96957      106.37048
H         -9.10105      107.54802      104.76945
H        -10.74622      108.66685      103.30208
H        -11.40740      110.73135      103.72334
H        -11.50832      107.47654      105.34696
H        -11.36148      108.98871      106.32210
H        -12.56326      108.88853      104.98685
N         -7.69678      110.33624      103.42161
C         -6.79043      110.80568      102.37391
C         -5.49464      110.01275      102.36212
O         -5.13261      109.46767      101.32847
C         -6.43221      112.30202      102.57692
C         -7.56593      113.34753      102.68877
C         -8.42337      113.58941      101.43673
C         -9.53669      112.55449      101.21025
N        -10.34616      112.92158      100.04871
H         -8.04324      111.01843      104.10980
H         -7.26088      110.67145      101.38276
H         -5.75433      112.61502      101.75201
H         -5.85827      112.39196      103.52545
H         -7.03531      114.30685      102.88142
H         -8.21731      113.17349      103.57064
H         -7.76825      113.68977      100.54459
H         -8.93957      114.56316      101.59016
H        -10.18800      112.51962      102.11163
H         -9.13558      111.54270      101.04582
H         -9.75024      112.93526       99.18899
H        -11.10695      112.21575       99.92286
H        -10.77920      113.86304      100.19148
N         -4.74473      109.91944      103.49099
C         -3.46326      109.22734      103.57098
C         -3.61782      107.76848      103.18615
O         -2.95112      107.33231      102.25795
C         -2.89254      109.36254      104.99830
C         -2.50808      110.82331      105.31592
C         -2.09934      111.02089      106.74839
O         -1.75366      112.12818      107.12728
O         -2.14463      110.00539      107.63082
H         -5.11736      110.36532      104.33928
H         -2.73980      109.69756      102.86646
H         -1.98312      108.73608      105.10214
H         -3.65234      108.99493      105.72147
H         -3.35907      111.50779      105.12497
H         -1.67007      111.12493      104.65023
N         -4.49699      106.96358      103.84175
C         -4.71534      105.57113      103.50729
H         -5.77397      105.43037      103.20289
H         -4.06448      105.22643      102.67647
H         -4.51081      104.94279      104.39869
H         -5.05508      107.35801      104.60653
Ca        -1.38668      111.01838      110.60566
O         -4.63744      113.63407      110.64414
H         -4.26318      114.23898      111.32906
H         -5.59545      113.56752      110.88251
O         -3.30940      114.57782      108.18212
H         -4.11040      115.15943      108.16010
H         -2.72683      114.98508      108.87116

Ca 1.0



