%chk=holoCaM-CaMKII.loop2.water2.frame500.chk
%nprocshared=20
%mem=10GB
%nosave
#b3lyp/svp scf=(tight,noincore,xqc) Test 
#IOP(5/87=12) Density=Current Pop=(MK,readradii) iop(6/33=2) iop(6/42=6)

holoCaM-CaMKII.loop2.water2.frame500 

   -2  1 
C        -10.81410      100.11316      114.46858
C        -10.97090      101.41115      115.20668
O        -10.60570      101.47119      116.37060
H         -9.74291       99.82556      114.43853
H        -11.39222       99.32083      114.98917
H        -11.18997      100.18946      113.42618
N        -11.51684      102.49518      114.58519
C        -11.73774      103.78915      115.23299
C        -12.65294      103.60089      116.43944
O        -13.84270      103.37374      116.27387
C        -12.25277      104.77926      114.15261
C        -12.82653      106.11042      114.56236
O        -13.93596      106.39888      114.15345
O        -12.14773      107.03088      115.27112
H        -11.78928      102.38408      113.59600
H        -10.76156      104.15920      115.59327
H        -13.05999      104.26732      113.58242
H        -11.41468      104.96053      113.44379
N        -12.10014      103.54274      117.69136
C        -12.83037      103.14204      118.88996
C        -13.65252      104.26002      119.49753
O        -14.45684      103.96414      120.37083
C        -11.85327      102.61738      119.95423
H        -11.08112      103.62622      117.76290
H        -13.50043      102.29741      118.61561
H        -11.26217      101.77057      119.54442
H        -11.15018      103.41936      120.26935
H        -12.40248      102.25447      120.84954
N        -13.49084      105.56248      119.12653
C        -14.29921      106.64970      119.67324
C        -15.14906      107.30800      118.59603
O        -15.91258      108.20455      118.92644
C        -13.42518      107.64640      120.46858
C        -12.34326      108.36360      119.70912
O        -12.17242      108.19105      118.51374
O        -11.54300      109.21533      120.37731
H        -12.77215      105.79549      118.42668
H        -15.02879      106.25062      120.41107
H        -12.93853      107.08712      121.29708
H        -14.08538      108.41561      120.92562
N        -15.13346      106.87060      117.30266
C        -16.04092      107.36648      116.28735
C        -15.84073      108.82829      115.98214
O        -16.80864      109.56935      116.07599
H        -14.50775      106.10498      117.01766
H        -17.08743      107.17433      116.60862
H        -15.89822      106.79030      115.35611
N        -14.62403      109.31522      115.59130
C        -14.41203      110.71321      115.22114
C        -13.92570      110.88343      113.77904
O        -13.90360      112.01563      113.31766
C        -13.47982      111.41027      116.23248
C        -12.02249      111.03648      116.09599
N        -11.09499      111.99610      115.86532
O        -11.67121      109.87253      116.20682
H        -13.82749      108.67261      115.57228
H        -15.38680      111.24258      115.28573
H        -13.82798      111.17807      117.26317
H        -13.57708      112.50809      116.09247
H        -11.36570      112.98679      115.77807
H        -10.09752      111.75379      115.78713
N        -13.52492      109.82518      113.00755
C        -13.16350      109.93601      111.59958
C        -11.71782      109.57540      111.29552
O        -11.39440      109.49027      110.11908
H        -13.49945      108.87857      113.40470
H        -13.34417      110.95853      111.20399
H        -13.82797      109.24438      111.03809
N        -10.77792      109.41711      112.27294
C         -9.35936      109.14566      112.00472
C         -8.86646      107.94132      112.79879
O         -9.64715      107.34713      113.52734
C         -8.51811      110.41481      112.30631
C         -8.66361      111.47133      111.20054
O         -8.83728      110.95448      113.56354
H        -11.05796      109.55902      113.25532
H         -9.19448      108.88215      110.93643
H         -7.43797      110.16332      112.30766
H         -9.67336      111.48250      113.46637
H         -8.02553      112.34888      111.43856
H         -8.31957      111.04819      110.23163
H         -9.71592      111.80565      111.09317
N         -7.57401      107.50169      112.66666
C         -7.04228      106.31787      113.34033
C         -5.85852      106.69567      114.23997
O         -4.82077      107.10265      113.73601
C         -6.61518      105.25492      112.27538
C         -7.81893      104.85215      111.38192
C         -5.99722      104.01512      112.94500
C         -7.45771      103.86472      110.26555
H         -6.94021      108.00362      112.02685
H         -7.83091      105.85785      113.97588
H         -5.83595      105.70997      111.62272
H         -8.22157      105.76140      110.88733
H         -8.62529      104.40891      112.00617
H         -6.73486      103.50876      113.60125
H         -5.62312      103.30014      112.18928
H         -5.10911      104.29544      113.53544
H         -6.64858      104.27953      109.62741
H         -7.13914      102.88367      110.67258
H         -8.34980      103.67753      109.63262
N         -5.95257      106.54787      115.59400
C         -4.85320      106.73320      116.54598
C         -3.84253      105.59538      116.44475
O         -4.04432      104.67675      115.66957
C         -5.40868      106.73266      117.99328
C         -6.33583      107.88378      118.24625
O         -7.61517      107.65811      118.60029
O         -5.92511      109.03019      118.16050
H         -6.86406      106.28737      115.97285
H         -4.35217      107.70722      116.35319
H         -4.58698      106.81694      118.73391
H         -5.93975      105.77308      118.18302
N         -2.73290      105.57771      117.23939
C         -1.77822      104.47319      117.24673
C         -2.42084      103.14738      117.67926
O         -2.32383      102.21692      116.89007
C         -0.52837      104.81822      118.10066
C          0.35095      103.60901      118.33021
C          0.95624      102.93756      117.25483
C          0.54194      103.12376      119.63748
C          1.73591      101.79916      117.48590
C          1.31978      101.98603      119.86278
C          1.91619      101.32342      118.78802
H         -2.55881      106.38198      117.86015
H         -1.39708      104.33202      116.20938
H         -0.81949      105.23272      119.07775
H          0.04805      105.62820      117.60486
H          0.81878      103.28937      116.24057
H          0.07849      103.61710      120.48329
H          2.19673      101.28196      116.65478
H          1.45503      101.61592      120.87110
H          2.51563      100.43997      118.96488
N         -3.04024      102.92452      118.88643
C         -3.51946      101.60546      119.30578
C         -4.54287      101.01974      118.35727
O         -4.65747       99.80893      118.23818
C         -4.18379      101.87423      120.66403
C         -3.38544      103.05124      121.17603
C         -3.28971      103.90780      119.92186
H         -2.63838      100.93617      119.41683
H         -5.22215      102.25467      120.51417
H         -4.23021      100.98974      121.33453
H         -3.82417      103.56927      122.05473
H         -2.36216      102.69434      121.43594
H         -4.26424      104.40366      119.71044
H         -2.51550      104.66643      120.06991
N         -5.37601      101.86564      117.70766
C         -6.45626      101.46905      116.82308
C         -5.89241      100.83205      115.56787
O         -6.31998       99.74115      115.21768
C         -7.31270      102.71509      116.54788
C         -7.92323      103.21006      117.89115
C         -8.65586      104.49026      117.74649
O         -9.22190      104.99226      118.70490
O         -8.70376      105.08598      116.55482
H         -5.23579      102.87430      117.86617
H         -7.12886      100.74087      117.33035
H         -8.13267      102.47808      115.83468
H         -6.67620      103.50797      116.09362
H         -7.15116      103.39453      118.66319
H         -8.62097      102.43654      118.27773
N         -4.87559      101.42755      114.88343
C         -4.22127      100.83403      113.73406
H         -3.15739      100.63591      113.98543
H         -4.69093       99.87783      113.42349
H         -4.25187      101.53680      112.87861
H         -4.50444      102.32316      115.22212
Ca       -10.18215      106.65293      116.17760
O         -7.83307      109.38488      115.62302
H         -7.98510      109.53799      116.58706
H         -7.19328      110.09405      115.36213
O         -9.53375      110.53339      118.50567
H         -9.18448      111.35794      118.08454
H        -10.51189      110.67558      118.54200

Ca 1.0



