%chk=holoCaM-CaMKII.loop2.water1.frame310.chk
%nprocshared=20
%mem=10GB
%nosave
#b3lyp/svp scf=(tight,noincore,xqc) Test 
#IOP(5/87=12) Density=Current Pop=(MK,readradii) iop(6/33=2) iop(6/42=6)

holoCaM-CaMKII.loop2.water1.frame310 

   -2  1 
C         66.55109        6.36656       42.38067
C         67.67061        5.39552       42.61470
O         68.66066        5.74923       43.23879
H         65.61588        5.97267       42.83129
H         66.77980        7.35674       42.82699
H         66.39689        6.49443       41.28747
N         67.57279        4.13500       42.11470
C         68.60893        3.11794       42.25573
C         69.91264        3.60366       41.63825
O         69.91325        4.01639       40.48687
C         68.12135        1.81365       41.59716
C         69.12124        0.70458       41.69729
O         69.53496        0.17179       40.68420
O         69.54888        0.27597       42.89583
H         66.71225        3.89469       41.59660
H         68.76339        2.90652       43.33600
H         67.88662        2.00028       40.52626
H         67.19071        1.48162       42.10734
N         71.06617        3.57160       42.36630
C         72.34424        4.09189       41.89936
C         73.32861        2.96151       41.67562
O         73.81652        2.82541       40.56181
C         72.88722        5.10065       42.91874
H         71.03783        3.15273       43.30485
H         72.21839        4.63122       40.93406
H         73.04608        4.62382       43.90977
H         73.85485        5.51987       42.56933
H         72.16627        5.93576       43.04804
N         73.66806        2.10252       42.68096
C         74.62181        1.00553       42.50009
C         74.16156       -0.06170       41.50244
O         74.94538       -0.95619       41.21517
C         74.95673        0.34708       43.85996
C         73.78865       -0.31214       44.55041
O         72.67483       -0.31578       44.05169
O         73.97946       -0.90422       45.74370
H         73.26028        2.25925       43.61455
H         75.56715        1.44723       42.11265
H         75.36558        1.12568       44.53922
H         75.74798       -0.41902       43.70862
N         72.92335       -0.04330       40.93182
C         72.47770       -1.02755       39.96288
C         72.32517       -2.40334       40.56401
O         72.87339       -3.34842       40.01550
H         72.25530        0.70211       41.16734
H         73.16181       -1.03989       39.08618
H         71.48166       -0.72965       39.58427
N         71.56118       -2.59086       41.67969
C         71.25524       -3.90670       42.23867
C         69.74286       -4.15421       42.31897
O         69.34830       -5.19741       42.82138
C         71.98115       -4.11430       43.58684
C         71.56093       -3.24062       44.73789
N         72.17489       -3.38573       45.93542
O         70.67601       -2.41156       44.60754
H         71.16740       -1.76043       42.14593
H         71.66618       -4.70302       41.57978
H         73.06987       -3.96148       43.41559
H         71.83578       -5.17058       43.90181
H         72.92433       -4.08300       46.05899
H         71.90927       -2.80221       46.74100
N         68.84037       -3.27959       41.77654
C         67.40880       -3.53475       41.69470
C         66.61907       -3.29146       42.96738
O         65.40732       -3.43985       42.90571
H         69.17821       -2.44614       41.27784
H         67.23397       -4.56374       41.31148
H         66.98260       -2.83094       40.94671
N         67.19726       -2.89683       44.13791
C         66.43185       -2.58898       45.35182
C         66.70698       -1.14351       45.77643
O         67.46937       -0.47868       45.09022
C         66.76772       -3.62787       46.44663
C         66.40998       -5.04788       45.97942
O         68.13250       -3.57809       46.75700
H         68.21952       -2.80004       44.18333
H         65.33860       -2.66025       45.16027
H         66.16285       -3.38937       47.35136
H         68.25005       -4.07271       47.61024
H         65.33327       -5.11287       45.71571
H         67.01525       -5.33503       45.09234
H         66.61989       -5.77938       46.78774
N         66.10072       -0.56995       46.86731
C         66.32472        0.83306       47.23961
C         66.97659        0.92250       48.62258
O         66.33598        0.60720       49.61498
C         64.99273        1.65773       47.17368
C         64.32743        1.52970       45.77550
C         65.25706        3.13975       47.51234
C         63.00850        2.30250       45.63528
H         65.44964       -1.13058       47.43656
H         67.01875        1.30423       46.51213
H         64.28299        1.25203       47.92926
H         64.09732        0.45920       45.58801
H         65.02627        1.88047       44.98538
H         64.31779        3.72620       47.54560
H         65.69605        3.23779       48.51913
H         65.94300        3.59707       46.76848
H         62.56242        2.09966       44.63904
H         62.28533        1.99126       46.41864
H         63.16943        3.39848       45.69742
N         68.26426        1.37096       48.74534
C         68.95178        1.61695       50.01748
C         68.36400        2.82925       50.72138
O         67.47037        3.45505       50.17494
C         70.44877        1.91895       49.76133
C         71.18501        0.74854       49.18500
O         71.72660        0.83505       48.09507
O         71.29585       -0.38853       49.89722
H         68.78496        1.55210       47.88263
H         68.86607        0.71967       50.66940
H         70.96289        2.16536       50.71151
H         70.53237        2.79791       49.08232
N         68.82209        3.23994       51.93946
C         68.30753        4.43787       52.59088
C         68.72158        5.70976       51.83773
O         67.82405        6.46196       51.49424
C         68.68334        4.49707       54.09061
C         67.95461        5.61660       54.79977
C         66.55116        5.59010       54.90551
C         68.66243        6.69004       55.36771
C         65.87094        6.61725       55.56319
C         67.97591        7.71838       56.02300
C         66.58207        7.68142       56.12095
H         69.53041        2.66952       52.42785
H         67.19748        4.35910       52.58037
H         69.76788        4.60544       54.23633
H         68.39594        3.54248       54.58157
H         65.98119        4.77103       54.48566
H         69.74220        6.73544       55.29971
H         64.79172        6.58570       55.64121
H         68.52415        8.54467       56.45618
H         66.05224        8.47590       56.63015
N         70.02634        6.03933       51.53126
C         70.40904        7.25533       50.80712
C         69.65555        7.43140       49.50357
O         69.29380        8.54727       49.15641
C         71.90445        7.05174       50.51449
C         72.34350        6.24074       51.70650
C         71.20194        5.23789       51.81899
H         70.26130        8.13270       51.47411
H         72.04000        6.39064       49.62673
H         72.47060        7.99263       50.34056
H         73.35426        5.78664       51.62711
H         72.31845        6.90505       52.60187
H         71.28958        4.44411       51.04776
H         71.25133        4.79997       52.82466
N         69.37917        6.34396       48.73818
C         68.63994        6.38217       47.48168
C         67.22304        6.86969       47.73983
O         66.81199        7.84161       47.12266
C         68.70613        4.98565       46.81533
C         70.18515        4.68084       46.46395
C         70.45881        3.29771       45.97402
O         71.61512        2.96012       45.77671
O         69.47990        2.39709       45.81162
H         69.69340        5.42680       49.09273
H         69.13060        7.08853       46.77470
H         68.09909        4.96207       45.88408
H         68.30298        4.22037       47.51604
H         70.81830        4.78748       47.36657
H         70.54439        5.41076       45.70752
N         66.45107        6.28506       48.69726
C         65.13574        6.75757       49.08221
H         64.39753        5.93662       48.97578
H         65.16235        7.07138       50.14872
H         64.79999        7.62413       48.47602
H         66.83153        5.49283       49.22108
Ca        70.18060        0.27600       45.56797
O         69.50165       -1.59130       48.08722
H         69.83578       -1.73967       47.16892
H         69.94826       -2.29398       48.62269

Ca 1.0



