%chk=holoCaM-CaMKII.loop3.water1.frame373.chk
%nprocshared=20
%mem=10GB
%nosave
#b3lyp/svp scf=(tight,noincore,xqc) Test 
#IOP(5/87=12) Density=Current Pop=(MK,readradii) iop(6/33=2) iop(6/42=6)

holoCaM-CaMKII.loop3.water1.frame373 

   0  1 
C         50.82468       74.82699       34.75401
C         50.72439       74.91921       33.26326
O         51.22990       75.87530       32.69036
H         49.80819       74.82347       35.19652
H         51.35311       73.89018       35.03118
H         51.39648       75.68835       35.16199
N         50.11563       73.92594       32.55550
C         50.07938       73.94071       31.10183
C         49.09570       75.00129       30.62541
O         47.90721       74.88449       30.88994
C         49.73233       72.54390       30.54771
C         50.22353       72.36675       29.13519
O         51.13273       71.41485       28.87307
O         49.84904       73.09131       28.23235
H         49.74956       73.10807       33.06716
H         51.11704       74.15748       30.76339
H         48.64576       72.33378       30.64519
H         50.26953       71.77994       31.14880
N         49.54297       76.09064       29.95162
C         48.70128       77.19378       29.50169
C         47.66190       76.73188       28.48379
O         46.57437       77.28997       28.46079
C         49.60881       78.30185       28.91052
C         48.92604       79.66985       28.76077
C         49.92376       80.69975       28.20159
C         49.34525       82.12119       28.21066
N         50.29410       83.07426       27.63223
H         50.55056       76.16256       29.80460
H         48.19223       77.61124       30.39899
H         50.03502       77.95885       27.94135
H         50.45190       78.46568       29.61940
H         48.58837       79.99863       29.76889
H         48.04324       79.60607       28.08997
H         50.19688       80.40881       27.16357
H         50.84785       80.70401       28.82184
H         49.12553       82.41712       29.26147
H         48.39710       82.15087       27.63097
H         50.46657       82.84066       26.62735
H         49.89290       84.03816       27.69011
H         51.19872       83.05399       28.15747
N         47.94532       75.73114       27.59614
C         47.03003       75.26713       26.55273
C         46.65207       73.78288       26.69297
O         45.94836       73.28164       25.82668
C         47.64289       75.60844       25.17590
C         48.98744       74.98715       24.92787
O         49.09914       73.77950       24.84289
O         50.07409       75.76636       24.76730
H         48.87676       75.29553       27.63402
H         46.06936       75.82540       26.59843
H         47.76154       76.71288       25.12846
H         46.94908       75.31020       24.36052
N         47.00495       73.04016       27.78492
C         46.55497       71.67187       28.02559
C         47.11711       70.58838       27.11540
O         46.70355       69.45068       27.29372
H         47.51952       73.49305       28.54879
H         45.44464       71.65220       27.96207
H         46.83127       71.38493       29.06328
N         48.02873       70.82408       26.12632
C         48.46514       69.76555       25.20871
C         49.26707       68.65144       25.87477
O         49.41803       67.60645       25.25651
C         49.27636       70.32748       24.02211
C         50.65605       70.80352       24.42517
N         51.76103       70.24194       23.88393
O         50.78187       71.69319       25.25137
H         48.35482       71.78349       25.97821
H         47.53468       69.32363       24.78449
H         48.71098       71.15674       23.54582
H         49.38080       69.52209       23.26149
H         51.68963       69.48460       23.18867
H         52.69571       70.56927       24.16543
N         49.86006       68.81670       27.09208
C         50.62271       67.76958       27.75521
C         52.07720       68.12233       28.00957
O         52.72741       67.32591       28.67267
H         49.76145       69.71492       27.58357
H         50.60352       66.81642       27.18588
H         50.13671       67.58048       28.73691
N         52.66900       69.27167       27.55710
C         54.02423       69.64520       27.96454
C         54.13929       71.17923       28.10678
O         54.03847       71.72116       26.82635
C         55.12077       68.95524       27.08267
C         55.25468       69.41515       25.63472
C         55.90837       70.62397       25.31143
C         54.76881       68.61736       24.58386
C         56.02171       71.04758       23.98423
C         54.89323       69.03832       23.25260
C         55.50851       70.25759       22.94907
O         55.60386       70.65649       21.66382
H         52.11419       69.94353       27.00870
H         54.16689       69.26278       29.00003
H         54.89915       67.86705       27.09819
H         56.11919       69.06843       27.55800
H         56.32791       71.25028       26.08892
H         54.28165       67.67426       24.79269
H         56.50942       71.98975       23.76269
H         54.50295       68.41932       22.45493
H         56.01240       71.49814       21.41360
N         55.41637       71.54020       28.75170
C         55.57134       72.92950       29.23946
C         56.93237       73.39555       28.75363
O         57.92302       72.72472       29.00989
C         55.50141       73.07866       30.81639
C         54.07849       72.95837       31.42840
C         56.02770       74.46585       31.26609
C         53.45232       71.57384       31.41343
H         55.68562       70.86765       29.50715
H         54.80175       73.60347       28.80922
H         56.17530       72.33351       31.29350
H         53.39918       73.69232       30.94405
H         54.13998       73.22483       32.50810
H         55.40913       75.27667       30.83642
H         56.00551       74.55950       32.37346
H         57.08652       74.62179       30.97711
H         53.22769       71.23659       30.39706
H         54.11736       70.84443       31.91904
H         52.48993       71.61506       31.96528
N         57.05230       74.59238       28.11445
C         58.32465       75.16241       27.68222
C         58.66262       76.37578       28.53618
O         57.92699       76.67398       29.46104
C         58.21940       75.52678       26.19246
O         57.22098       76.49597       26.00167
H         56.20333       75.16329       27.97739
H         59.15428       74.43254       27.80530
H         57.97964       74.59575       25.62725
H         59.18535       75.92036       25.81202
H         56.84692       76.35109       25.09442
N         59.77667       77.12084       28.29005
C         60.12198       78.32279       29.04884
C         59.04006       79.38480       28.93296
O         58.66610       79.95834       29.94724
C         61.44988       78.90134       28.55233
H         60.39976       76.82925       27.52235
H         60.26904       78.06059       30.12145
H         62.25736       78.14789       28.67303
H         61.38207       79.19204       27.48288
H         61.72093       79.79655       29.15367
N         58.47411       79.67790       27.72383
C         57.44836       80.70721       27.52179
C         56.15474       80.49629       28.31558
O         55.29504       81.36416       28.25600
C         57.10488       80.79862       26.02858
H         58.81108       79.15356       26.90096
H         57.88051       81.68093       27.84015
H         56.66932       79.83796       25.67542
H         56.37501       81.61411       25.83953
H         58.02215       81.01194       25.43961
N         55.95149       79.39861       29.09280
C         54.77981       79.17517       29.92554
C         55.20034       79.18909       31.38305
O         54.68300       80.00821       32.12974
C         54.15223       77.83066       29.54914
C         53.45992       77.88651       28.18222
C         53.03949       76.51041       27.79780
O         53.44431       75.97273       26.64454
O         52.40634       75.81870       28.57253
H         56.66534       78.66937       29.11938
H         54.01534       79.97375       29.79386
H         53.39068       77.53972       30.30776
H         54.94825       77.05534       29.53827
H         54.14314       78.27504       27.39711
H         52.57390       78.55103       28.25146
N         56.14449       78.32745       31.85681
C         56.61126       78.32350       33.22807
H         57.70100       78.53752       33.24198
H         56.09924       79.08428       33.85351
H         56.43627       77.32270       33.67430
H         56.57123       77.64452       31.22066
Ca        53.21716       73.77927       26.79248
O         52.72818       73.53346       23.69901
H         53.67299       73.75598       23.89413
H         52.77389       72.90942       22.93178

Ca 1.0



