%chk=holoCaM-CaMKII.loop4.water1.frame487.chk
%nprocshared=20
%mem=10GB
%nosave
#b3lyp/svp scf=(tight,noincore,xqc) Test 
#IOP(5/87=12) Density=Current Pop=(MK,readradii) iop(6/33=2) iop(6/42=6)

holoCaM-CaMKII.loop4.water1.frame487 

   -3  1 
C         95.89634       94.86046       85.02813
C         96.90609       94.79334       83.91362
O         97.04754       93.74791       83.30057
H         94.88550       94.62312       84.63561
H         96.16157       94.13192       85.82212
H         95.85922       95.87317       85.48616
N         97.65709       95.88395       83.60949
C         98.65637       95.94819       82.54675
C        100.01958       96.12050       83.19437
O        100.18643       97.01109       84.01645
C         98.26167       97.09848       81.60655
C         99.31591       97.54369       80.63305
O         99.66697       98.71091       80.66084
O         99.89603       96.74952       79.72000
H         97.52259       96.73603       84.17789
H         98.67584       95.01540       81.94018
H         98.00940       97.99108       82.22118
H         97.34228       96.80509       81.05343
N        101.03342       95.25688       82.88458
C        102.30924       95.19560       83.59770
C        103.48076       95.64421       82.71725
O        104.54123       95.92422       83.25703
C        102.55756       93.71820       84.07535
C        101.29980       93.08751       84.73891
C        103.77968       93.61712       85.01337
C        101.46825       91.59750       85.06565
H        100.87027       94.56723       82.14092
H        102.25836       95.87924       84.47384
H        102.76407       93.11185       83.16326
H        100.44666       93.13846       84.02898
H        101.02007       93.64426       85.65769
H        103.60012       94.19715       85.94300
H        104.00160       92.56593       85.27717
H        104.70673       93.97731       84.53410
H        101.75754       91.03110       84.15336
H        102.22815       91.43329       85.85500
H        100.50895       91.18589       85.44223
N        103.38429       95.68961       81.35788
C        104.50690       95.99631       80.47113
C        104.28720       97.27665       79.67298
O        105.14021       97.61607       78.86419
C        104.89553       94.76731       79.59891
C        103.83632       94.04966       78.79165
O        104.17697       93.13273       78.06357
O        102.52614       94.29905       78.93746
H        102.48191       95.47600       80.92392
H        105.42549       96.20971       81.06189
H        105.32144       93.99440       80.27597
H        105.71425       95.07911       78.91404
N        103.23842       98.10465       79.93418
C        103.08739       99.42252       79.34347
C        102.78162       99.39467       77.87042
O        103.41712      100.11134       77.11065
H        102.54714       97.84564       80.65198
H        103.98133      100.04921       79.55703
H        102.21599       99.91271       79.82919
N        101.75308       98.63344       77.41724
C        101.20261       98.71227       76.06870
C         99.71425       99.08763       76.11590
O         99.09704       99.18066       75.06446
C        101.46670       97.39424       75.31112
C        100.80813       96.17624       75.88937
O        101.01196       95.08658       75.37994
O         99.98280       96.26742       76.94529
H        101.30997       97.99300       78.08811
H        101.72075       99.50678       75.48818
H        102.56511       97.22204       75.30126
H        101.12709       97.50077       74.25805
N         99.07953       99.33920       77.30281
C         97.68600       99.71769       77.43694
C         96.74013       98.63566       76.98074
O         95.88036       98.92607       76.16362
H         99.60065       99.30098       78.18544
H         97.49815      100.66726       76.89058
H         97.47594       99.90242       78.51440
N         96.81182       97.37760       77.50957
C         95.86347       96.29804       77.18958
C         96.09248       95.06638       78.06645
O         97.12447       94.97320       78.71823
C         95.85606       95.95988       75.67085
C         97.23329       95.57925       75.10166
C         97.61943       94.16338       75.41934
N         96.94631       93.14233       74.84489
O         98.56099       93.92864       76.15970
H         97.55501       97.21276       78.20407
H         94.85423       96.67448       77.46668
H         95.53372       96.86424       75.12338
H         95.09731       95.18448       75.43195
H         97.98431       96.30958       75.45952
H         97.21680       95.66029       73.99363
H         96.17352       93.32274       74.18751
H         97.22175       92.17140       75.02737
N         95.10580       94.12708       78.21366
C         95.20204       93.03311       79.18134
C         94.94783       91.68747       78.50477
O         93.83779       91.43126       78.06028
C         94.21598       93.28515       80.36155
C         94.36145       92.22109       81.46053
C         94.44917       94.67252       80.99007
H         94.21942       94.25042       77.70110
H         96.21899       93.01713       79.62486
H         93.17217       93.25587       79.97890
H         94.16508       91.20708       81.06107
H         95.38089       92.25121       81.89342
H         93.63541       92.40962       82.27998
H         93.74815       94.83988       81.83547
H         95.48982       94.76445       81.36547
H         94.27159       95.47959       80.24945
N         95.95950       90.78098       78.39440
C         95.82880       89.43916       77.81537
C         95.17402       88.48530       78.79908
O         94.83318       88.89895       79.89412
C         97.24467       88.89997       77.50773
C         97.91656       89.75245       76.46888
N         98.98266       90.51834       76.79013
O         97.48316       89.75819       75.32674
H         96.88974       91.07216       78.72313
H         95.24820       89.47979       76.86703
H         97.22769       87.85920       77.12240
H         97.83326       88.89464       78.45287
H         99.34008       90.53488       77.75563
H         99.43413       91.11392       76.08057
N         95.01549       87.16388       78.49229
C         94.59651       86.17658       79.48235
C         95.67625       86.04403       80.55300
O         95.36243       86.11698       81.73272
C         94.36543       84.79230       78.83513
C         93.74303       83.83933       79.83487
C         92.44223       84.07978       80.31543
C         94.44700       82.71785       80.30403
C         91.85979       83.22104       81.25027
C         93.86331       81.86210       81.24660
C         92.56721       82.11274       81.72297
O         91.99296       81.30003       82.63303
H         95.24700       86.84052       77.54071
H         93.62997       86.50506       79.92412
H         95.33340       84.39997       78.45194
H         93.67342       84.87837       77.96952
H         91.87520       84.93287       79.96428
H         95.45051       82.51286       79.95337
H         90.85770       83.42060       81.60979
H         94.41951       81.00686       81.60882
H         92.44812       80.52619       82.99402
N         96.98690       85.87409       80.18731
C         98.10725       85.73485       81.12654
C         98.29321       86.92833       82.05976
O         99.14056       86.83505       82.93793
C         99.43469       85.50380       80.36252
C         99.47334       84.14540       79.64929
C        100.76999       83.96970       78.91016
O        100.76785       83.77749       77.70485
O        101.94177       84.01517       79.57375
H         97.19464       85.84033       79.17778
H         97.91222       84.85347       81.77640
H        100.28503       85.51510       81.08059
H         99.58879       86.33387       79.63573
H         98.62776       84.05420       78.93603
H         99.38364       83.33557       80.40557
N         97.52956       88.05108       81.97778
C         97.60044       89.13980       82.93736
C         96.35361       89.07577       83.79964
O         96.48196       88.94963       85.00983
C         97.79450       90.47766       82.20334
C         99.11845       90.46886       81.42054
C         99.41744       91.78919       80.78248
O        100.56428       92.42265       81.08110
O         98.65369       92.27763       79.96822
H         96.82678       88.13820       81.23807
H         98.46745       89.01967       83.62560
H         97.82037       91.29265       82.95710
H         96.95398       90.65678       81.49949
H         99.08183       89.69317       80.62637
H         99.95219       90.22596       82.11472
N         95.11228       89.05804       83.24387
C         93.91697       88.82934       84.02509
H         93.02991       88.79374       83.35653
H         93.99333       87.84797       84.54397
H         93.78167       89.63736       84.77163
H         95.00942       89.15177       82.22962
Ca       100.31464       94.64508       79.12524
O        101.67859       91.64899       77.85537
H        101.86070       92.09880       76.99213
H        101.80487       90.68585       77.66465

Ca 1.0



