%chk=holoCaM-CaMKII.loop3.water2.frame174.chk
%nprocshared=20
%mem=10GB
%nosave
#b3lyp/svp scf=(tight,noincore,xqc) Test 
#IOP(5/87=12) Density=Current Pop=(MK,readradii) iop(6/33=2) iop(6/42=6)

holoCaM-CaMKII.loop3.water2.frame174 

   0  1 
C         10.20132       51.16208       23.83369
C         10.09943       50.17722       24.96404
O          9.73005       50.57524       26.05831
H         10.93751       51.95285       24.08778
H         10.52243       50.66842       22.89195
H          9.21000       51.63170       23.65925
N         10.43297       48.87020       24.77369
C         10.34498       47.84262       25.80410
C         11.74995       47.51361       26.26441
O         12.25385       46.42200       26.03775
C          9.56932       46.63262       25.24586
C          9.48462       45.51066       26.23814
O          9.94941       44.41915       25.95725
O          8.91254       45.70221       27.44006
H         10.80410       48.58771       23.85312
H          9.79544       48.20906       26.70104
H         10.06380       46.26636       24.31981
H          8.53899       46.94168       24.98379
N         12.43644       48.46475       26.95071
C         13.79824       48.29748       27.43882
C         13.89228       47.12899       28.41049
O         14.69933       46.24164       28.17232
C         14.30501       49.61064       28.07981
C         14.38203       50.74658       27.03438
C         14.99038       52.02885       27.61856
C         15.19098       53.12961       26.55754
N         13.92758       53.65673       26.03599
H         11.95090       49.35545       27.13548
H         14.46896       48.08309       26.57598
H         15.32912       49.43254       28.47443
H         13.64875       49.91101       28.92665
H         13.37228       50.96818       26.63625
H         15.02515       50.40772       26.19289
H         15.99298       51.77646       28.02662
H         14.36146       52.41438       28.45039
H         15.80950       52.73509       25.72045
H         15.75320       53.96652       27.02717
H         14.13883       54.41244       25.34434
H         13.37936       52.91557       25.54617
H         13.36216       54.06624       26.81461
N         13.07950       47.04228       29.50413
C         13.12739       45.92397       30.45522
C         13.02005       44.57461       29.75574
O         13.92850       43.77336       29.92821
C         12.08555       46.06800       31.59379
C         10.65607       46.06472       31.13570
O         10.27654       46.98845       30.24546
O          9.84591       45.27487       31.59233
H         12.40836       47.80802       29.65546
H         14.12013       45.95783       30.95868
H         12.26954       47.03530       32.11045
H         12.23597       45.25539       32.33818
N         11.98635       44.26931       28.91538
C         11.92547       43.01958       28.16430
C         10.67050       42.20296       28.40445
O         10.57284       41.13716       27.81247
H         11.25256       44.97110       28.74513
H         12.79064       42.36525       28.40633
H         11.98905       43.25762       27.08320
N          9.68436       42.59405       29.26302
C          8.53469       41.74293       29.57264
C          7.59427       41.47509       28.39888
O          6.72919       40.62442       28.56205
C          7.74894       42.29800       30.78379
C          7.13667       43.66652       30.59120
N          6.45677       44.23837       31.60907
O          7.25252       44.26720       29.53440
H          9.79310       43.47820       29.77485
H          8.94301       40.75708       29.89005
H          8.44494       42.35684       31.64803
H          6.93769       41.58544       31.04978
H          6.34912       43.74979       32.50956
H          6.03325       45.16911       31.49720
N          7.67094       42.14360       27.20958
C          6.79423       41.84886       26.08197
C          5.83609       42.97218       25.74212
O          5.01904       42.76642       24.85756
H          8.36852       42.88763       27.09169
H          6.16191       40.96090       26.29619
H          7.41246       41.60251       25.19225
N          5.84580       44.17259       26.39475
C          4.85451       45.21202       26.11635
C          5.22521       46.56239       26.71080
O          6.14171       46.65963       27.51078
C          3.45135       44.79898       26.63830
C          3.45516       44.41464       28.10875
C          3.01243       45.31256       29.09616
C          3.88694       43.13404       28.50275
C          3.01319       44.93720       30.44658
C          3.87829       42.75906       29.84771
C          3.44187       43.66043       30.82595
O          3.43116       43.31095       32.12875
H          6.57512       44.35256       27.09215
H          4.83268       45.37938       25.01688
H          3.03540       43.94780       26.06010
H          2.74689       45.64242       26.46972
H          2.67715       46.30573       28.82533
H          4.21629       42.41250       27.77019
H          2.67961       45.63891       31.20083
H          4.20946       41.76624       30.12687
H          3.72077       42.43713       32.42953
N          4.54242       47.67353       26.29592
C          4.80974       49.01633       26.79973
C          3.54236       49.67465       27.31699
O          2.44282       49.22469       27.03187
C          5.47263       49.91235       25.70771
C          4.60225       50.04564       24.42833
C          6.86601       49.37134       25.37951
C          5.18083       51.01011       23.38830
H          3.82090       47.56281       25.56931
H          5.51222       48.95967       27.65727
H          5.61162       50.92652       26.13559
H          3.60049       50.43237       24.71055
H          4.47283       49.05431       23.94451
H          7.40421       50.06179       24.70424
H          7.46720       49.28447       26.30752
H          6.79135       48.37770       24.89745
H          4.48359       51.08589       22.52769
H          5.31263       52.01900       23.83052
H          6.15214       50.65188       22.99084
N          3.66066       50.78847       28.08861
C          2.55352       51.61897       28.54283
C          2.79151       53.05150       28.06571
O          3.73552       53.27480       27.32826
C          2.42992       51.50126       30.06951
O          3.60906       51.90512       30.71288
H          4.60659       51.08011       28.36785
H          1.58749       51.27336       28.11483
H          2.17539       50.44448       30.32840
H          1.58451       52.11012       30.45036
H          4.09826       51.07697       30.95951
N          1.96511       54.07344       28.42565
C          2.11603       55.44511       27.93063
C          3.47725       56.05567       28.24194
O          4.11496       56.55092       27.32297
C          1.01216       56.33668       28.50478
H          1.17709       53.86301       29.05494
H          1.98247       55.44080       26.82512
H          1.09690       57.36281       28.08603
H          0.01755       55.92945       28.22341
H          1.08073       56.38983       29.61174
N          3.98769       56.05769       29.50614
C          5.28327       56.64971       29.85381
C          6.40332       56.08239       29.00283
O          7.16315       56.84057       28.41696
C          5.60171       56.39236       31.33302
H          3.43704       55.59874       30.24875
H          5.24221       57.75124       29.70342
H          5.65935       55.30198       31.54321
H          6.57670       56.85480       31.60083
H          4.81525       56.83756       31.97739
N          6.53162       54.73861       28.87465
C          7.56474       54.07531       28.08396
C          7.55421       54.54969       26.63985
O          8.61758       54.83709       26.10823
C          7.35392       52.55349       28.14372
C          7.53190       52.02101       29.57506
C          7.29588       50.54982       29.64807
O          6.50780       50.08764       30.45661
O          8.02366       49.72866       28.88106
H          5.82145       54.16090       29.34815
H          8.57074       54.29098       28.51034
H          8.09908       52.05202       27.48913
H          6.34305       52.31974       27.76584
H          6.85203       52.51662       30.29735
H          8.57636       52.22115       29.89889
N          6.38407       54.69837       25.96173
C          6.29228       55.17540       24.59793
H          5.74087       56.13962       24.58489
H          7.28842       55.33098       24.13491
H          5.73015       54.43820       23.98944
H          5.50398       54.50566       26.44612
Ca         8.27277       47.61499       29.52581
O          5.19428       47.33751       30.42917
H          5.04977       47.95859       29.67510
H          4.58231       47.66292       31.13521
O          7.52723       47.46273       32.50635
H          8.27214       47.04733       33.00845
H          6.70990       47.10955       32.93894

Ca 1.0



