%chk=holoCaM-CaMKII.loop4.water1.frame372.chk
%nprocshared=20
%mem=10GB
%nosave
#b3lyp/svp scf=(tight,noincore,xqc) Test 
#IOP(5/87=12) Density=Current Pop=(MK,readradii) iop(6/33=2) iop(6/42=6)

holoCaM-CaMKII.loop4.water1.frame372 

   -3  1 
C         60.84585       72.81083       29.76633
C         61.46694       72.38684       28.46605
O         61.75816       71.21119       28.30345
H         59.88890       72.26725       29.91475
H         61.53373       72.57908       30.60506
H         60.63068       73.90093       29.77775
N         61.67638       73.29764       27.47718
C         62.21780       72.94842       26.16973
C         63.65868       72.44460       26.26515
O         64.54581       73.19812       26.64006
C         62.10653       74.17131       25.24099
C         62.72441       73.93243       23.90332
O         63.61330       74.67022       23.51822
O         62.32222       72.90560       23.13413
H         61.38965       74.27431       27.64996
H         61.57555       72.14955       25.73336
H         62.60622       75.04726       25.71179
H         61.03110       74.41920       25.10217
N         63.94217       71.15334       25.92966
C         65.28066       70.56216       25.94359
C         66.09724       71.05549       24.75182
O         67.19239       71.56668       24.93494
C         65.19290       68.99043       25.89666
C         64.41264       68.45208       27.12901
C         66.59673       68.35216       25.81236
C         64.28670       66.92538       27.18184
H         63.14822       70.55070       25.68030
H         65.79293       70.82317       26.89692
H         64.65075       68.67876       24.97961
H         63.38294       68.86079       27.11404
H         64.90041       68.79263       28.06698
H         66.52573       67.25166       25.69562
H         67.14345       68.70229       24.91255
H         67.19349       68.59028       26.71649
H         65.27220       66.44488       27.34065
H         63.63884       66.63932       28.03679
H         63.84594       66.52647       26.24749
N         65.64241       70.81948       23.49107
C         66.43183       70.97957       22.26763
C         66.86342       72.41336       22.03347
O         68.04803       72.67936       21.88967
C         65.59617       70.49828       21.05188
C         65.12518       69.07692       21.24315
O         65.93491       68.16712       21.31224
O         63.81205       68.81764       21.42490
H         64.69646       70.42069       23.40931
H         67.33566       70.33429       22.33675
H         66.17774       70.57713       20.10824
H         64.71287       71.15804       20.94561
N         65.91746       73.37675       21.93699
C         66.16011       74.76824       21.59345
C         65.39082       75.11828       20.33505
O         65.96575       75.66805       19.40703
H         64.95008       73.08319       22.11250
H         67.24149       74.99111       21.45801
H         65.79127       75.40214       22.42590
N         64.07261       74.78634       20.23890
C         63.19856       75.07647       19.11368
C         61.92557       75.77316       19.58591
O         61.02878       75.96808       18.77717
C         62.91295       73.78611       18.31103
C         62.34818       72.59603       19.03584
O         62.21210       71.55472       18.41358
O         62.09010       72.59093       20.35394
H         63.64282       74.27558       21.01496
H         63.69905       75.75527       18.38812
H         63.88752       73.44735       17.89314
H         62.24890       74.02576       17.45376
N         61.80175       76.24004       20.86589
C         60.65119       76.98293       21.34083
C         59.42565       76.14316       21.63086
O         58.43910       76.74319       22.03572
H         62.59055       76.16933       21.52163
H         60.41220       77.79096       20.61454
H         60.92279       77.47149       22.30147
N         59.38185       74.78415       21.47022
C         58.17664       74.00124       21.75284
C         58.41553       72.87860       22.75481
O         59.55383       72.58186       23.08995
C         57.49540       73.57934       20.42776
C         58.37166       72.91489       19.34632
C         58.72451       71.47005       19.57578
N         58.36204       70.53724       18.66072
O         59.37320       71.13936       20.55498
H         60.20969       74.28882       21.11134
H         57.43108       74.65044       22.26281
H         57.16869       74.53883       19.96794
H         56.57578       72.98422       20.61490
H         59.29781       73.50226       19.18334
H         57.79787       72.97428       18.39643
H         57.82700       70.79623       17.81913
H         58.63499       69.55260       18.76644
N         57.34116       72.29144       23.36029
C         57.41510       71.30576       24.43847
C         56.56513       70.09501       24.08472
O         55.40373       70.26701       23.73615
C         56.90725       71.93845       25.76932
C         56.87743       70.91094       26.91960
C         57.80357       73.11423       26.19372
H         56.40021       72.62436       23.09601
H         58.46121       70.98984       24.62792
H         55.87141       72.31721       25.62284
H         56.50950       71.38611       27.85372
H         56.18515       70.07592       26.68920
H         57.89043       70.49611       27.10867
H         58.84626       72.76792       26.36745
H         57.81466       73.90704       25.41843
H         57.42328       73.56530       27.13556
N         57.05040       68.83298       24.26114
C         56.25596       67.62508       24.07454
C         55.97371       66.97738       25.41799
O         56.46467       67.43948       26.43934
C         56.99859       66.60776       23.17383
C         57.21005       67.09197       21.76780
N         58.02190       68.13644       21.50265
O         56.65757       66.51105       20.84497
H         58.00612       68.71760       24.61958
H         55.26932       67.86791       23.62241
H         56.39863       65.67546       23.11174
H         57.98082       66.33743       23.62073
H         58.53247       68.62884       22.24529
H         58.15699       68.43797       20.53398
N         55.17232       65.87865       25.47879
C         54.90487       65.13056       26.70220
C         56.19831       64.57733       27.26001
O         56.41030       64.63463       28.46220
C         53.89981       64.00156       26.40500
C         53.41137       63.33249       27.66579
C         52.16953       63.70412       28.20599
C         54.17588       62.34794       28.31519
C         51.70121       63.11041       29.37835
C         53.69874       61.74504       29.48455
C         52.45943       62.12791       30.02075
O         51.98673       61.56090       31.14856
H         54.74369       65.54434       24.60135
H         54.42848       65.80950       27.44629
H         54.29607       63.25198       25.68426
H         53.02858       64.48626       25.91197
H         51.56869       64.46708       27.72651
H         55.13322       62.03938       27.91331
H         50.74664       63.41699       29.78642
H         54.29179       60.98214       29.97301
H         52.47463       60.87354       31.62329
N         57.13749       64.08124       26.40862
C         58.45413       63.62282       26.82585
C         59.18694       64.73946       27.55977
O         59.63509       64.52861       28.67836
C         59.25063       63.18910       25.56930
C         60.56801       62.47580       25.89591
C         61.31823       62.15069       24.63353
O         62.55885       62.63902       24.44357
O         60.81036       61.44622       23.77485
H         56.91526       64.06857       25.40126
H         58.33249       62.73820       27.49038
H         59.45089       64.07972       24.93226
H         58.62891       62.48172       24.97674
H         60.34824       61.53223       26.44169
H         61.20624       63.11849       26.53778
N         59.34220       65.96092       26.96999
C         60.10624       67.05568       27.56924
C         59.44189       67.64055       28.81449
O         60.07572       68.44095       29.48913
C         60.32259       68.20554       26.55404
C         60.96236       67.73267       25.23388
C         61.22138       68.86469       24.28759
O         62.46459       69.08645       23.83643
O         60.30815       69.56009       23.88218
H         58.93031       66.08804       26.03636
H         61.10438       66.64960       27.84569
H         60.97756       68.97369       27.01765
H         59.34772       68.68369       26.34064
H         60.30770       67.01538       24.70376
H         61.91646       67.22372       25.45292
N         58.15942       67.33686       29.15822
C         57.49949       67.91501       30.30837
H         56.45326       67.54301       30.36796
H         58.03205       67.62845       31.23894
H         57.47221       69.02170       30.21516
H         57.61121       66.70078       28.57424
Ca        62.32198       70.49015       21.11089
O         60.89138       68.20265       20.09117
H         61.79545       67.80277       20.05006
H         60.31068       67.54688       19.63198

Ca 1.0



