%chk=holoCaM-CaMKII.loop1.water2.frame452.chk
%nprocshared=20
%mem=10GB
%nosave
#b3lyp/svp scf=(tight,noincore,xqc) Test 
#IOP(5/87=12) Density=Current Pop=(MK,readradii) iop(6/33=2) iop(6/42=6)

holoCaM-CaMKII.loop1.water2.frame452 

   0  1 
C         81.86095       46.07575       47.61338
C         83.18460       45.42032       47.84004
O         83.90253       45.84738       48.72933
H         81.26356       46.00684       48.54752
H         82.01431       47.14171       47.35035
H         81.29917       45.57431       46.79833
N         83.57878       44.36914       47.07198
C         84.78739       43.61093       47.33443
C         85.94796       44.15979       46.50655
O         86.33598       43.55053       45.52078
C         84.48458       42.10208       47.14006
C         85.58196       41.26147       47.69939
O         86.68646       41.87762       48.13024
O         85.48378       40.04723       47.75453
H         82.95949       44.04306       46.31423
H         85.05373       43.71534       48.40899
H         84.29694       41.85035       46.07411
H         83.57712       41.85434       47.72204
N         86.51697       45.35507       46.84784
C         87.52642       46.04234       46.03858
C         88.91489       45.40988       46.04931
O         89.73514       45.86013       45.26013
C         87.65097       47.51947       46.46998
C         86.33909       48.28167       46.23231
C         86.48497       49.76313       46.59497
C         85.23956       50.58602       46.22527
N         84.04391       50.16147       46.95589
H         86.14991       45.83636       47.68032
H         87.17130       46.03520       44.98382
H         88.43821       48.01221       45.85718
H         87.95290       47.57979       47.53992
H         85.52496       47.83047       46.83437
H         86.07557       48.19988       45.15516
H         87.34175       50.18601       46.02580
H         86.70279       49.86673       47.68054
H         85.05433       50.51111       45.13031
H         85.44838       51.65193       46.46379
H         84.21449       50.20857       47.98640
H         83.25601       50.80412       46.71290
H         83.76331       49.19338       46.68172
N         89.26516       44.38086       46.87322
C         90.56996       43.71306       46.79680
C         90.42342       42.31330       46.20537
O         91.43382       41.67634       45.94366
C         91.31395       43.81023       48.14972
C         90.51812       43.29940       49.31295
O         90.38047       41.98420       49.52697
O         89.99284       44.08729       50.08245
H         88.57268       44.01983       47.54532
H         91.22645       44.23449       46.06494
H         91.49700       44.89361       48.32212
H         92.30699       43.31107       48.11649
N         89.19777       41.82632       45.85198
C         88.98055       40.65274       45.03220
C         89.47512       39.37639       45.64557
O         90.24831       38.67826       45.00620
H         88.35095       42.35086       46.08601
H         89.45063       40.81160       44.03726
H         87.88473       40.54204       44.86494
N         89.01326       38.97339       46.85801
C         89.28660       37.65834       47.42224
C         87.98661       36.86805       47.58902
O         88.01188       35.81527       48.21072
C         90.12674       37.75022       48.71588
C         89.53657       38.54886       49.83087
O         88.41887       38.30635       50.24466
O         90.27573       39.49934       50.43148
H         88.37671       39.59809       47.37199
H         89.91546       37.05211       46.73532
H         91.12128       38.18392       48.47027
H         90.29563       36.72066       49.09335
N         86.83235       37.26252       46.96963
C         85.59926       36.49134       46.99107
C         84.81067       36.59393       48.27753
O         83.72637       36.02450       48.31147
H         86.83461       38.09273       46.36082
H         85.81174       35.43075       46.73435
H         84.93120       36.89582       46.19960
N         85.24384       37.29842       49.36189
C         84.44006       37.47863       50.56728
C         84.27257       38.95009       50.89735
O         85.06935       39.77513       50.46445
C         85.03711       36.70587       51.76630
C         84.89270       35.18650       51.59131
O         86.37842       37.06323       51.98479
H         86.17098       37.74250       49.33519
H         83.41214       37.08521       50.40282
H         84.46366       36.96136       52.68361
H         86.93137       36.59514       51.30511
H         83.81728       34.92015       51.50517
H         85.42236       34.83338       50.68159
H         85.31118       34.66418       52.47744
N         83.22196       39.34539       51.66417
C         82.93573       40.72590       52.02796
C         83.01657       40.83353       53.53604
O         82.34251       40.07645       54.22661
C         81.53309       41.15572       51.49423
C         81.48537       41.03242       49.94927
C         81.21010       42.60365       51.92500
C         80.11124       41.32600       49.34043
H         82.56799       38.62114       52.00617
H         83.67817       41.41845       51.57467
H         80.76650       40.47804       51.93100
H         81.75055       39.99512       49.65434
H         82.22873       41.72438       49.50403
H         80.19263       42.90768       51.61126
H         81.22556       42.69937       53.02685
H         81.94495       43.31444       51.49035
H         79.80033       42.37637       49.50937
H         80.15485       41.17010       48.24179
H         79.34855       40.64052       49.76629
N         83.78866       41.79034       54.11694
C         83.86049       42.00029       55.55632
C         82.92228       43.12014       55.95265
O         82.30909       43.72325       55.08557
C         85.31942       42.31189       55.99404
C         86.27406       41.13733       55.73880
O         85.79095       43.49121       55.38303
H         84.25334       42.47383       53.50323
H         83.50617       41.09380       56.09612
H         85.34051       42.48513       57.09017
H         86.14560       43.26589       54.48367
H         85.93706       40.24364       56.30409
H         86.31688       40.88835       54.65811
H         87.29600       41.40856       56.08214
N         82.73844       43.44556       57.25692
C         81.88638       44.55030       57.69441
C         82.40044       45.85906       57.11589
O         81.62937       46.62122       56.55376
C         81.83129       44.63194       59.24169
C         81.14493       43.40335       59.84680
O         83.12036       44.74848       59.79189
H         83.24746       42.89446       57.96612
H         80.84182       44.39215       57.33987
H         81.20420       45.50843       59.53374
H         83.30311       45.71615       59.91572
H         81.09288       43.50953       60.95081
H         80.10978       43.31123       59.45413
H         81.69888       42.47064       59.61319
N         83.72883       46.13889       57.18918
C         84.36965       47.34532       56.67503
C         84.03490       47.57548       55.21260
O         83.56223       48.65541       54.88283
C         85.88090       47.21333       56.95593
C         86.74367       48.41339       56.55355
C         88.08637       48.31959       57.29799
C         89.04072       49.46412       56.95244
N         90.19399       49.45367       57.85488
H         84.33056       45.42503       57.62755
H         84.00140       48.22377       57.25093
H         86.29954       46.29501       56.48490
H         85.95310       47.09244       58.06057
H         86.24872       49.35699       56.86815
H         86.87850       48.42554       55.44919
H         88.58943       47.34953       57.08758
H         87.86416       48.37017       58.38768
H         88.51676       50.43910       57.05808
H         89.37901       49.35373       55.89829
H         90.85736       50.21267       57.57971
H         89.87381       49.63246       58.83575
H         90.68727       48.53237       57.81415
N         84.19590       46.59049       54.29064
C         83.82480       46.74196       52.88498
C         82.35350       47.11724       52.73866
O         82.06989       48.14266       52.13427
C         84.17101       45.45802       52.10040
C         85.70168       45.29365       51.99772
C         86.11616       44.10400       51.18111
O         86.79740       44.25975       50.18065
O         85.78979       42.85938       51.56946
H         84.56942       45.68670       54.61584
H         84.41450       47.57165       52.43297
H         83.76146       45.54604       51.07931
H         83.69810       44.57430       52.57795
H         86.15002       45.19664       53.00630
H         86.12119       46.20735       51.52113
N         81.36580       46.36623       53.29280
C         79.96883       46.73841       53.21018
H         79.34755       46.01100       53.77580
H         79.81637       47.74588       53.65502
H         79.63660       46.74643       52.15110
H         81.60982       45.52244       53.81527
Ca        88.34219       41.14212       49.33500
O         89.14063       42.59197       52.89111
H         89.58862       42.19014       53.67717
H         89.76021       43.30497       52.59639
O         87.99310       39.48675       52.92240
H         88.38711       38.58565       52.81340
H         88.53764       39.90033       53.63691

Ca 1.0



