%chk=holoCaM.loop1.water2.frame80.chk
%nprocshared=20
%mem=10GB
%nosave
#b3lyp/svp scf=(tight,noincore,xqc) Test 
#IOP(5/87=12) Density=Current Pop=(MK,readradii) iop(6/33=2) iop(6/42=6)

holoCaM.loop1.water2.frame80 

   0  1 
C        -22.10674       25.20376       97.14526
C        -22.86300       26.29960       96.44842
O        -23.50357       27.09411       97.12191
H        -21.34972       25.65100       97.82477
H        -22.80618       24.58193       97.74093
H        -21.57817       24.54848       96.42079
N        -22.79984       26.43091       95.09355
C        -23.44742       27.52404       94.37848
C        -24.96648       27.36991       94.37369
O        -25.48095       26.42983       93.78385
C        -22.89413       27.60587       92.94637
C        -23.52438       28.72308       92.17462
O        -24.12377       28.47985       91.14277
O        -23.44841       29.98966       92.62183
H        -22.20748       25.77036       94.56593
H        -23.15987       28.47495       94.88289
H        -23.06852       26.64248       92.41760
H        -21.79665       27.78127       92.99414
N        -25.73812       28.27433       95.03764
C        -27.19177       28.20592       95.13345
C        -27.88914       28.56976       93.82193
O        -28.82125       27.87118       93.45109
C        -27.70857       29.06594       96.33119
C        -27.92860       30.56485       96.05904
C        -28.11667       31.36444       97.35697
C        -28.45696       32.83072       97.05028
N        -28.53710       33.62629       98.27544
H        -25.25015       28.98832       95.58522
H        -27.45371       27.16622       95.43648
H        -27.00636       28.91297       97.18164
H        -28.69775       28.67822       96.66157
H        -28.82659       30.66841       95.41830
H        -27.08683       31.00170       95.51270
H        -27.17067       31.31916       97.94202
H        -28.93457       30.92425       97.96662
H        -29.43198       32.87308       96.51560
H        -27.68025       33.26808       96.38925
H        -27.60112       33.65805       98.74207
H        -28.82210       34.60246       98.03061
H        -29.24507       33.22038       98.92905
N        -27.53874       29.69545       93.11518
C        -28.34700       30.25104       92.02411
C        -27.66393       30.28188       90.66036
O        -27.95528       31.17778       89.87709
C        -28.86244       31.65620       92.42886
C        -27.79178       32.71567       92.56717
O        -26.50006       32.47886       92.25932
O        -28.10331       33.82006       92.98233
H        -26.71181       30.21951       93.41855
H        -29.24922       29.61877       91.88378
H        -29.38875       31.56268       93.40066
H        -29.60598       32.01954       91.68776
N        -26.87014       29.26126       90.23980
C        -26.45288       29.13112       88.84891
C        -25.56610       30.23042       88.29011
O        -25.36535       30.21682       87.08390
H        -26.64940       28.49568       90.89307
H        -27.37708       29.09792       88.23310
H        -25.92165       28.16582       88.70661
N        -24.95330       31.16825       89.06828
C        -24.03011       32.16241       88.50989
C        -22.57984       31.70117       88.59459
O        -21.70420       32.42390       88.13673
C        -24.27887       33.55358       89.13517
C        -24.04715       33.66644       90.61855
O        -24.29885       34.84142       91.22387
O        -23.63963       32.72540       91.28101
H        -25.05179       31.09892       90.09028
H        -24.22326       32.28543       87.42143
H        -25.33450       33.83555       88.93548
H        -23.62590       34.30199       88.63434
N        -22.25456       30.48474       89.11695
C        -20.91144       29.94546       89.17672
C        -20.00171       30.82050       89.98989
O        -18.91265       31.12055       89.53310
H        -22.99418       29.87825       89.48676
H        -20.50212       29.80109       88.15224
H        -20.95874       28.94905       89.66835
N        -20.38802       31.22855       91.23192
C        -19.54848       32.03751       92.11898
C        -20.03804       31.93667       93.56712
O        -21.09491       31.38992       93.83308
C        -19.47176       33.53961       91.69471
C        -18.84380       33.82925       90.32461
O        -20.73475       34.14517       91.77128
H        -21.29469       30.88291       91.56718
H        -18.53374       31.58310       92.12104
H        -18.81147       34.05472       92.42417
H        -21.28450       33.77283       91.03510
H        -17.82842       33.38469       90.26053
H        -19.48172       33.45437       89.49929
H        -18.75511       34.92651       90.18120
N        -19.23661       32.39895       94.57064
C        -19.53662       32.23374       95.98803
C        -19.54692       33.59503       96.68179
O        -18.59264       34.34872       96.57978
C        -18.52450       31.20978       96.59561
C        -18.85973       29.79737       96.02052
C        -18.57629       31.19404       98.13230
C        -17.96868       28.65857       96.51583
H        -18.32835       32.81547       94.32486
H        -20.53946       31.78434       96.13870
H        -17.48993       31.50428       96.31435
H        -18.77608       29.82245       94.91361
H        -19.91103       29.53096       96.27675
H        -17.82106       30.50063       98.55173
H        -18.33578       32.19390       98.54580
H        -19.57125       30.88471       98.48327
H        -18.08090       28.50245       97.60821
H        -18.28098       27.71356       96.02061
H        -16.90716       28.86042       96.26786
N        -20.60670       33.91106       97.48340
C        -20.74548       35.10240       98.30732
C        -20.50102       34.69921       99.75537
O        -20.14089       33.55959      100.00600
C        -22.19100       35.67819       98.16719
C        -22.53806       36.07810       96.72704
O        -23.13861       34.77695       98.70624
H        -21.33141       33.20914       97.61846
H        -20.00426       35.87897       98.02040
H        -22.27032       36.61485       98.75584
H        -23.65467       34.34249       97.97914
H        -23.55882       36.51768       96.69923
H        -21.81948       36.82965       96.34193
H        -22.52309       35.18305       96.07912
N        -20.70850       35.57816      100.77217
C        -20.63628       35.18548      102.17755
C        -21.65926       34.10269      102.50550
O        -21.27970       33.13011      103.14150
C        -20.81962       36.40228      103.11013
C        -19.59067       37.33244      103.01580
O        -22.03687       37.06012      102.82948
H        -20.96594       36.54736      100.53978
H        -19.62683       34.76831      102.39752
H        -20.85293       36.04454      104.16261
H        -21.86813       38.02217      102.65314
H        -19.69949       38.18064      103.72290
H        -18.67192       36.77148      103.29620
H        -19.46007       37.73115      101.98830
N        -22.96753       34.19086      102.12018
C        -23.95038       33.15316      102.45426
C        -23.67191       31.80016      101.78618
O        -24.36823       30.84944      102.11423
C        -25.39180       33.60052      102.10237
C        -25.85300       34.90466      102.78622
C        -25.81322       34.83510      104.32133
C        -26.34269       36.13221      104.94628
N        -26.27009       36.07633      106.40628
H        -23.26887       35.02750      101.59915
H        -23.90208       32.98174      103.54984
H        -26.10152       32.79644      102.40014
H        -25.47508       33.73392      101.00083
H        -26.89980       35.09906      102.46374
H        -25.23276       35.75828      102.44278
H        -24.76725       34.69181      104.66345
H        -26.43093       33.97949      104.67223
H        -27.39929       36.29107      104.63557
H        -25.73610       36.99250      104.58497
H        -26.84881       35.28322      106.76672
H        -25.27692       35.95540      106.71209
H        -26.63724       36.97171      106.80206
N        -22.68640       31.62819      100.85671
C        -22.37970       30.35126      100.20896
C        -20.97195       29.87053      100.55883
O        -20.61641       28.77689      100.14155
C        -22.48502       30.52269       98.67812
C        -23.83766       31.09152       98.24531
C        -23.84494       31.52384       96.80921
O        -23.02250       32.30309       96.36897
O        -24.89155       31.22129       96.05676
H        -22.13806       32.44032      100.56466
H        -23.09247       29.56632      100.54198
H        -22.27546       29.56998       98.14339
H        -21.71303       31.25005       98.38796
H        -24.06065       32.00522       98.82966
H        -24.64700       30.35259       98.43911
N        -20.10809       30.63165      101.29497
C        -18.75868       30.23630      101.63722
H        -18.04454       30.97132      101.20763
H        -18.64734       30.24425      102.74198
H        -18.50144       29.22715      101.25771
H        -20.38898       31.55580      101.62707
Ca       -25.16313       32.07877       94.00866
O        -22.96186       34.84172       93.64443
H        -22.10394       34.42941       93.91586
H        -22.72033       35.76106       93.36609
O        -25.50717       34.66561       95.66185
H        -25.64050       35.64571       95.66657
H        -26.10904       34.34600       94.94486

Ca 1.0



