%chk=holoCaM.loop4.water3.frame250.chk
%nprocshared=20
%mem=10GB
%nosave
#b3lyp/svp scf=(tight,noincore,xqc) Test 
#IOP(5/87=12) Density=Current Pop=(MK,readradii) iop(6/33=2) iop(6/42=6)

holoCaM.loop4.water3.frame250 

   -3  1 
C         43.22393       81.22322       68.83630
C         42.66314       82.60260       69.04414
O         42.74794       83.41729       68.13908
H         43.98896       80.98969       69.60252
H         42.39646       80.48263       68.91066
H         43.67420       81.12408       67.82430
N         41.99983       82.90097       70.19827
C         41.18095       84.09957       70.37199
C         41.31043       84.68510       71.78433
O         41.14987       83.95141       72.74924
C         39.74258       83.66214       70.06085
C         38.67088       84.69803       70.23044
O         37.76086       84.46003       71.00689
O         38.61444       85.85339       69.53905
H         41.90494       82.14857       70.89853
H         41.43512       84.86600       69.62146
H         39.49202       82.80148       70.71925
H         39.69981       83.29944       69.01134
N         41.53292       86.02536       71.96516
C         41.60262       86.71000       73.25878
C         40.45998       87.72261       73.46142
O         40.36312       88.26069       74.55570
C         42.94522       87.51295       73.39575
C         43.07084       88.63501       72.31549
C         44.17040       86.58819       73.35948
C         44.09210       89.71710       72.66560
H         41.62027       86.60966       71.13726
H         41.52731       85.96256       74.07877
H         42.92062       88.00031       74.39636
H         42.11588       89.18182       72.21150
H         43.30888       88.19649       71.32542
H         44.09514       85.82137       74.15743
H         44.24956       86.07924       72.37563
H         45.10378       87.16341       73.53174
H         44.09376       90.48979       71.86593
H         43.79695       90.21319       73.61617
H         45.11682       89.31142       72.76205
N         39.66571       88.13626       72.42812
C         38.78050       89.30843       72.50204
C         37.37252       89.06893       71.95414
O         36.55347       89.97147       72.06251
C         39.45164       90.52092       71.78327
C         39.84595       90.30223       70.33449
O         39.66175       89.10209       69.76630
O         40.40059       91.18997       69.70903
H         39.80600       87.69222       71.51975
H         38.64815       89.60896       73.56457
H         40.37971       90.77557       72.33860
H         38.77782       91.40191       71.84683
N         37.01215       87.90446       71.34983
C         35.68376       87.62915       70.82402
C         35.22616       88.63026       69.78164
O         34.16291       89.20623       69.96411
H         37.70080       87.15440       71.26916
H         34.95550       87.60996       71.66438
H         35.68833       86.61888       70.35958
N         35.96798       88.88726       68.66464
C         35.53974       89.81758       67.61405
C         35.48028       89.16464       66.22919
O         35.21192       89.87025       65.26567
C         36.41093       91.09445       67.62386
C         37.86721       90.91959       67.29813
O         38.39071       89.71000       67.04154
O         38.59078       91.90153       67.26538
H         36.87949       88.41604       68.56859
H         34.51052       90.18515       67.82256
H         36.33445       91.56222       68.62990
H         35.98283       91.81169       66.88890
N         35.65022       87.82104       66.05195
C         35.50985       87.15588       64.76258
C         36.67110       87.34402       63.79505
O         36.58765       86.79240       62.70910
H         35.77967       87.21931       66.87555
H         34.55574       87.47601       64.28809
H         35.43636       86.06106       64.94107
N         37.78477       88.07095       64.10688
C         38.93449       88.22956       63.20660
C         40.20670       87.72874       63.87407
O         40.15766       87.38980       65.04508
C         39.08362       89.71688       62.84819
C         37.89217       90.20699       62.01298
C         37.99291       91.68080       61.73291
N         37.91233       92.57887       62.74264
O         38.12993       92.07060       60.58313
H         37.83218       88.53574       65.01814
H         38.79643       87.63615       62.27703
H         40.00867       89.87882       62.25308
H         39.17114       90.30150       63.79123
H         36.93048       90.02064       62.53667
H         37.88477       89.63923       61.05589
H         37.77359       92.26760       63.71551
H         37.97070       93.58951       62.55027
N         41.38931       87.64461       63.17562
C         42.62901       87.17145       63.79351
C         43.70837       88.25005       63.70094
O         44.23653       88.49943       62.62736
C         43.13305       85.84010       63.15453
C         44.31046       85.26132       63.96253
C         42.03124       84.77533       63.06832
H         41.40646       87.90690       62.17982
H         42.43613       86.95503       64.86602
H         43.46929       86.03915       62.11320
H         43.99652       85.04007       65.00693
H         44.68095       84.32115       63.50232
H         45.15597       85.97097       63.99216
H         42.43067       83.85532       62.58885
H         41.66060       84.50445       64.07319
H         41.18409       85.13504       62.44841
N         44.08320       88.91937       64.82484
C         45.18927       89.87870       64.91433
C         46.52080       89.13880       64.76986
O         46.50330       87.92319       64.70973
C         45.10006       90.56537       66.30634
C         46.04709       91.70511       66.56554
N         46.00474       92.82828       65.81556
O         46.83213       91.63320       67.49845
H         43.53061       88.72875       65.66093
H         45.06270       90.64153       64.11597
H         45.26258       89.79104       67.08616
H         44.07476       90.97669       66.43167
H         45.33015       92.92178       65.04349
H         46.63910       93.61408       66.02242
N         47.71875       89.78651       64.71052
C         49.00078       89.07230       64.69312
C         49.26885       88.41453       66.04066
O         49.66318       87.25675       66.07068
C         50.15835       90.02621       64.34485
C         51.49811       89.31157       64.31822
C         51.73389       88.23263       63.44264
C         52.52701       89.72174       65.18201
C         52.97203       87.57987       63.43918
C         53.76428       89.07116       65.17263
C         53.99100       87.99702       64.30121
O         55.18047       87.36166       64.28329
H         47.72205       90.81631       64.67749
H         48.98056       88.30035       63.89184
H         50.17857       90.85707       65.08305
H         49.97123       90.46460       63.34086
H         50.96348       87.88990       62.76401
H         52.37278       90.54675       65.86528
H         53.14073       86.74876       62.76488
H         54.54551       89.40312       65.84438
H         55.91258       87.62346       64.86012
N         49.04277       89.10113       67.20115
C         49.26288       88.56516       68.55169
C         48.43492       87.29962       68.84500
O         48.61654       86.69614       69.89208
C         48.95567       89.69099       69.57574
C         49.46144       89.42947       71.00527
C         49.21728       90.59957       71.92747
O         49.65358       90.53877       73.19956
O         48.63773       91.60441       71.54258
H         48.70414       90.06835       67.10934
H         50.34159       88.30567       68.62263
H         47.86067       89.89542       69.58255
H         49.47787       90.61106       69.23002
H         50.55746       89.25099       70.96334
H         48.96744       88.54241       71.44671
N         47.53546       86.82411       67.94073
C         46.73287       85.62041       68.07256
C         47.22383       84.58529       67.07059
O         47.49714       83.46186       67.46994
C         45.26955       86.01285       67.81053
C         44.73816       86.89518       68.94738
C         43.42336       87.49517       68.57764
O         42.28741       86.98086       69.03651
O         43.37598       88.50018       67.90241
H         47.37428       87.34677       67.07799
H         46.81309       85.16614       69.08662
H         44.62736       85.11065       67.73842
H         45.20841       86.54972       66.83716
H         45.42580       87.73132       69.19994
H         44.63070       86.25705       69.85139
N         47.40872       84.90232       65.75985
C         47.92139       83.96623       64.78568
H         48.91468       83.58686       65.10738
H         47.21326       83.12204       64.66109
H         48.04523       84.47784       63.80581
H         47.21594       85.85157       65.43770
Ca        39.70026       87.39377       68.31015
O         37.85734       85.72829       66.77287
H         38.01445       84.98882       66.13634
H         37.21222       85.35871       67.42658
O         41.04251       85.16934       66.60389
H         40.65143       84.66830       67.35859
H         40.41187       84.99432       65.86393
O         41.26758       90.14040       66.59196
H         40.83917       90.75507       65.94518
H         41.64134       90.73532       67.28939

Ca 1.0



