%chk=holoCaM-CaMKII.loop1.water2.frame51.chk
%nprocshared=20
%mem=10GB
%nosave
#b3lyp/svp scf=(tight,noincore,xqc) Test 
#IOP(5/87=12) Density=Current Pop=(MK,readradii) iop(6/33=2) iop(6/42=6)

holoCaM-CaMKII.loop1.water2.frame51 

   0  1 
C          2.09521       54.13748      101.70007
C          1.23572       54.39681      102.89484
O          1.43148       53.75852      103.91677
H          2.84281       53.34654      101.92473
H          1.46236       53.81010      100.85056
H          2.63405       55.06934      101.42763
N          0.27511       55.35854      102.85327
C         -0.52973       55.68638      104.01877
C         -1.47331       54.53208      104.35498
O         -2.33628       54.25133      103.53821
C         -1.30247       56.99918      103.76526
C         -1.89371       57.45228      105.04845
O         -3.09885       57.54231      105.18960
O         -1.05406       57.67593      106.07130
H          0.16765       55.91059      101.98761
H          0.17823       55.86641      104.85286
H         -2.07661       56.86031      102.97855
H         -0.59985       57.79370      103.42950
N         -1.35041       53.80588      105.51383
C         -2.12993       52.59274      105.79916
C         -3.05673       52.68109      107.01082
O         -3.77773       51.71329      107.21882
C         -1.18651       51.38062      105.96339
C         -0.38845       50.90753      104.72504
C         -1.21606       50.26317      103.58738
C         -1.80338       51.24739      102.56133
N         -2.59617       50.54947      101.55153
H         -0.62786       54.08156      106.19364
H         -2.84052       52.38562      104.98872
H         -1.77072       50.49757      106.30278
H         -0.46444       51.62548      106.77473
H          0.25466       50.09069      105.12127
H          0.29410       51.67946      104.33036
H         -2.00372       49.61412      104.02749
H         -0.52908       49.61071      103.00535
H         -0.97114       51.80097      102.07012
H         -2.46596       51.97456      103.02657
H         -2.02128       49.82687      101.06317
H         -3.42416       50.10005      102.00753
H         -2.94166       51.24559      100.85098
N         -3.18490       53.79236      107.79079
C         -4.28562       53.93694      108.75560
C         -5.32499       54.87865      108.14731
O         -6.47806       54.47683      108.06859
C         -3.86223       54.21369      110.23149
C         -3.04269       55.43371      110.49470
O         -2.59644       56.13059      109.45785
O         -2.72567       55.74392      111.63158
H         -2.58269       54.60101      107.58995
H         -4.82558       52.96978      108.86767
H         -3.27605       53.34427      110.60342
H         -4.78974       54.28464      110.84004
N         -4.97468       56.05753      107.54551
C         -5.88541       56.82244      106.70103
C         -6.04770       58.25598      107.14600
O         -7.17726       58.66573      107.37229
H         -3.99934       56.37355      107.57150
H         -6.88672       56.34353      106.64296
H         -5.47840       56.82225      105.66884
N         -4.97125       59.08527      107.28270
C         -5.08307       60.48194      107.69920
C         -4.38117       61.45575      106.74216
O         -4.30399       62.63099      107.07231
C         -4.60335       60.61635      109.16112
C         -3.14783       60.36149      109.41184
O         -2.37925       60.14050      108.49629
O         -2.68080       60.40095      110.67303
H         -4.02909       58.69979      107.13786
H         -6.15088       60.79032      107.73196
H         -5.18970       59.89589      109.77277
H         -4.83222       61.63891      109.52843
N         -3.90704       61.06758      105.51886
C         -3.33313       62.00373      104.55599
C         -1.87324       62.35004      104.78983
O         -1.34466       63.11945      103.99720
H         -4.06417       60.10287      105.19663
H         -3.95663       62.92373      104.50872
H         -3.37150       61.53611      103.54824
N         -1.13949       61.80914      105.80311
C          0.29422       62.04496      105.98449
C          1.06065       60.73505      105.90487
O          0.44574       59.68351      105.84347
C          0.56527       62.76213      107.33168
C          0.08107       64.21814      107.31406
O         -0.00217       62.05577      108.40687
H         -1.60217       61.16604      106.45663
H          0.69436       62.68138      105.16469
H          1.66089       62.81488      107.50719
H         -0.96581       62.29100      108.46047
H          0.30579       64.69626      108.29149
H          0.61415       64.78017      106.51817
H         -1.01178       64.27541      107.12756
N          2.41982       60.72519      105.85817
C          3.22825       59.50975      105.78895
C          4.17242       59.50996      106.97617
O          4.91169       60.47160      107.15009
C          3.98842       59.43127      104.43022
C          2.96542       59.37012      103.26114
C          4.91951       58.19722      104.39741
C          3.60253       59.40364      101.86967
H          2.91592       61.63152      105.85444
H          2.58964       58.59949      105.84168
H          4.61354       60.34483      104.31975
H          2.28815       60.24791      103.32074
H          2.34403       58.45033      103.34909
H          4.33480       57.25690      104.49684
H          5.50731       58.15712      103.45917
H          5.66354       58.24035      105.21787
H          2.80208       59.40196      101.09961
H          4.20897       60.32570      101.74819
H          4.23775       58.51454      101.68463
N          4.22359       58.44191      107.81850
C          5.10336       58.37293      108.98003
C          6.35771       57.59375      108.65005
O          6.49571       57.10433      107.54175
C          4.36425       57.72018      110.17778
C          3.12278       58.51139      110.56877
O          3.99562       56.40543      109.84745
H          3.65107       57.61625      107.59632
H          5.43438       59.39472      109.27072
H          5.04864       57.70245      111.05503
H          3.76515       55.94092      110.69416
H          3.39365       59.55627      110.82594
H          2.39824       58.50405      109.73102
H          2.64989       58.04114      111.45504
N          7.33643       57.45733      109.58102
C          8.55065       56.67744      109.36743
C          8.20434       55.21382      109.12021
O          8.66079       54.65933      108.13067
C          9.51773       56.83605      110.56859
C         10.03312       58.28451      110.66065
O          8.87606       56.47028      111.76428
H          7.20276       57.92571      110.48965
H          9.09273       57.06089      108.47239
H         10.39457       56.17056      110.39701
H          9.56003       56.49906      112.48301
H          9.20538       59.00493      110.82669
H         10.75252       58.38299      111.50014
H         10.55992       58.56238      109.72235
N          7.37005       54.53948      109.96274
C          6.99301       53.13644      109.78022
C          6.35154       52.90075      108.42237
O          6.79364       52.01858      107.69979
C          6.01007       52.67395      110.88212
C          6.64534       52.68684      112.28200
C          5.69421       52.09144      113.32857
C          6.36042       52.05088      114.71097
N          5.48460       51.42244      115.69935
H          6.96825       55.05996      110.75596
H          7.90114       52.49666      109.85106
H          5.71386       51.62497      110.65613
H          5.09112       53.30226      110.87481
H          6.91511       53.72239      112.57871
H          7.57110       52.07168      112.25669
H          5.42945       51.05391      113.02781
H          4.76196       52.69624      113.38094
H          6.60564       53.08612      115.03729
H          7.30718       51.46920      114.64787
H          5.27330       50.43781      115.41575
H          5.97028       51.40745      116.62531
H          4.59421       51.96303      115.79039
N          5.30461       53.66554      108.01514
C          4.59626       53.48876      106.74754
C          5.54956       53.53076      105.56464
O          5.58063       52.57217      104.80530
C          3.50785       54.57403      106.60783
C          2.37179       54.36217      107.63085
C          1.34443       55.45757      107.63351
O          1.45503       56.43635      106.91410
O          0.29043       55.36242      108.46460
H          5.01127       54.42434      108.64548
H          4.09662       52.49348      106.73557
H          3.06619       54.54300      105.59261
H          3.98283       55.56771      106.73731
H          2.77387       54.29953      108.66106
H          1.86386       53.40113      107.39779
N          6.36779       54.59600      105.35766
C          7.31019       54.68899      104.26151
H          8.34038       54.76137      104.66991
H          7.26274       53.81044      103.58458
H          7.09404       55.60212      103.66893
H          6.33784       55.37544      106.01794
Ca        -1.60519       57.62500      108.20425
O          0.10662       56.91238      111.24315
H          0.43495       57.38065      112.05077
H         -0.70930       57.41137      110.98965
O          0.11758       59.78331      110.20276
H          0.81607       60.25582      110.72076
H          0.48553       59.70814      109.28648

Ca 1.0



