%chk=holoCaM.loop1.water2.frame401.chk
%nprocshared=20
%mem=10GB
%nosave
#b3lyp/svp scf=(tight,noincore,xqc) Test 
#IOP(5/87=12) Density=Current Pop=(MK,readradii) iop(6/33=2) iop(6/42=6)

holoCaM.loop1.water2.frame401 

   0  1 
C        108.38034       78.66839       99.19794
C        109.83889       78.98965       99.17358
O        110.65720       78.08009       99.17788
H        107.90002       79.07499       98.28291
H        108.21887       77.57079       99.23549
H        107.92264       79.13693      100.09326
N        110.23722       80.28926       99.13131
C        111.63497       80.67169       99.06579
C        112.36802       80.24901      100.33548
O        112.09914       80.78311      101.40182
C        111.74844       82.18760       98.82750
C        113.14082       82.60277       98.49312
O        113.35441       83.74981       98.15158
O        114.11691       81.68099       98.42485
H        109.51222       81.02271       99.09651
H        112.06658       80.15831       98.17287
H        111.35485       82.75656       99.69705
H        111.13584       82.44249       97.93375
N        113.27495       79.23851      100.28051
C        113.97839       78.69218      101.43411
C        115.02369       79.64714      102.00157
O        115.07183       79.78549      103.21567
C        114.63525       77.33219      101.08795
C        113.58172       76.28792      100.65437
C        114.18190       74.88536      100.50223
C        113.10561       73.87928      100.06146
N        113.64487       72.52118      100.00165
H        113.40051       78.77451       99.37615
H        113.23940       78.45679      102.23341
H        115.13500       76.95454      102.00809
H        115.40545       77.44879      100.29400
H        113.11821       76.58804       99.69129
H        112.78285       76.23539      101.42692
H        114.59897       74.56739      101.48290
H        115.00066       74.90037       99.75045
H        112.71758       74.16864       99.05879
H        112.25696       73.89609      100.78166
H        112.89470       71.86899       99.67644
H        114.44744       72.47749       99.33300
H        113.95956       72.22124      100.95327
N        115.90755       80.31614      101.19949
C        117.02169       81.12054      101.72406
C        116.81098       82.63468      101.62022
O        117.69533       83.37042      102.03748
C        118.35802       80.65952      101.09505
C        118.48098       80.89460       99.61558
O        119.50462       80.56713       99.03751
O        117.48701       81.47002       98.91997
H        115.79082       80.23360      100.17981
H        117.13036       80.93460      102.81488
H        118.48653       79.57243      101.28865
H        119.19549       81.19579      101.59207
N        115.63827       83.17396      101.18461
C        115.32034       84.59323      101.28697
C        116.10827       85.50611      100.37102
O        116.71355       86.45270      100.85346
H        114.88115       82.54860      100.87720
H        115.43662       84.91880      102.34516
H        114.25070       84.72859      101.01888
N        116.07123       85.32402       99.02401
C        116.61798       86.26274       98.04494
C        115.53073       86.75145       97.07046
O        115.87078       87.40483       96.09335
C        117.82412       85.63245       97.31816
C        117.54126       84.30007       96.71236
O        118.29227       83.23497       97.04497
O        116.64476       84.17600       95.90441
H        115.59861       84.48443       98.66464
H        117.02364       87.17539       98.53392
H        118.65435       85.50392       98.04475
H        118.17707       86.32310       96.52222
N        114.19957       86.54419       97.30832
C        113.12904       87.05024       96.45754
C        112.94589       86.33181       95.12913
O        112.04082       86.72371       94.40742
H        113.91076       86.09638       98.18678
H        113.27761       88.13889       96.28629
H        112.16592       86.92944       97.00123
N        113.72536       85.28078       94.73573
C        113.52657       84.55935       93.47479
C        113.30211       83.06859       93.72486
O        113.41995       82.60950       94.85066
C        114.73429       84.77695       92.52536
C        114.88399       86.24536       92.09281
O        115.92219       84.29872       93.10163
H        114.48363       84.97153       95.34850
H        112.61931       84.93604       92.95439
H        114.57027       84.20396       91.58811
H        116.29880       85.01726       93.67243
H        115.75049       86.34209       91.40341
H        113.97038       86.58324       91.56106
H        115.05667       86.90524       92.96953
N        112.94485       82.26092       92.68222
C        112.71992       80.81955       92.77555
C        113.64506       80.11563       91.78588
O        113.65222       80.45634       90.61258
C        111.21886       80.49751       92.49928
C        110.28357       81.08616       93.59713
C        110.95901       78.98529       92.34004
C        110.43385       80.46561       94.99901
H        112.80230       82.69658       91.75894
H        112.95175       80.44005       93.78857
H        110.94098       80.97054       91.53131
H        109.22876       80.93248       93.28080
H        110.44845       82.18144       93.67547
H        111.25832       78.42653       93.24658
H        109.88217       78.79769       92.14228
H        111.52682       78.57351       91.48055
H        109.71685       80.94901       95.69545
H        110.19695       79.38138       94.98918
H        111.45090       80.61054       95.41354
N        114.41295       79.07180       92.20907
C        115.30940       78.28512       91.36483
C        114.73070       76.89432       91.17558
O        113.62655       76.64620       91.61955
C        116.73328       78.27195       91.97637
C        117.38967       79.65243       91.84297
O        116.71403       77.82019       93.31083
H        114.31519       78.76660       93.18213
H        115.37703       78.71256       90.34089
H        117.39642       77.58931       91.40836
H        116.53386       78.59599       93.90333
H        117.49363       79.91724       90.76900
H        116.76502       80.42789       92.32673
H        118.40255       79.63899       92.29855
N        115.39031       75.95745       90.43971
C        114.78068       74.68903       90.03756
C        114.36184       73.84759       91.24202
O        113.20854       73.44712       91.31940
C        115.73566       73.89693       89.10514
C        114.97759       72.80250       88.34952
O        116.29417       74.76033       88.14446
H        116.32774       76.19104       90.08662
H        113.87854       74.94204       89.43608
H        116.54479       73.44276       89.72820
H        117.26576       74.55680       88.09255
H        115.67531       72.25087       87.68530
H        114.49280       72.08801       89.04412
H        114.19497       73.27018       87.70976
N        115.25142       73.58504       92.23963
C        114.94794       72.82226       93.45622
C        113.73809       73.39074       94.17791
O        112.83152       72.63851       94.50673
C        116.16483       72.86796       94.41678
C        117.37090       72.08772       93.86661
C        118.64694       72.37804       94.66831
C        119.83382       71.58812       94.09637
N        121.08940       71.97932       94.73584
H        116.19025       74.00112       92.14261
H        114.73259       71.75865       93.20669
H        115.90308       72.42953       95.40665
H        116.43742       73.93478       94.58003
H        117.57316       72.38300       92.81727
H        117.13451       71.00064       93.88272
H        118.50919       72.12292       95.74215
H        118.86514       73.46603       94.58687
H        119.91949       71.78177       93.00389
H        119.65815       70.49933       94.24598
H        121.86915       71.41327       94.32922
H        121.28138       72.99102       94.54949
H        121.04439       71.81117       95.76649
N        113.67212       74.71771       94.46348
C        112.59416       75.33262       95.23621
C        111.24381       75.10167       94.56771
O        110.36236       74.53146       95.19590
C        112.87444       76.84274       95.45105
C        114.21270       77.07582       96.19319
C        114.52985       78.52655       96.41130
O        114.56423       79.30532       95.47687
O        114.88630       78.95824       97.62969
H        114.44060       75.30501       94.11333
H        112.56539       74.86379       96.24599
H        112.04569       77.28741       96.04528
H        112.91243       77.34991       94.46576
H        115.05623       76.66939       95.60541
H        114.19747       76.55203       97.17386
N        111.02076       75.48708       93.28321
C        109.76933       75.25509       92.59510
H        108.94666       75.79690       93.10579
H        109.84173       75.62375       91.54831
H        109.54408       74.16748       92.56653
H        111.77111       75.94447       92.76350
Ca       115.68337       81.79482       96.83676
O        117.25479       81.90372       94.30398
H        117.96461       81.23794       94.14149
H        117.70912       82.76440       94.13493
O        118.26139       79.36567       95.95489
H        118.40189       80.01777       96.68505
H        119.02354       79.51747       95.34115

Ca 1.0



