%chk=holoCaM-CaMKII.loop4.water2.frame258.chk
%nprocshared=20
%mem=10GB
%nosave
#b3lyp/svp scf=(tight,noincore,xqc) Test 
#IOP(5/87=12) Density=Current Pop=(MK,readradii) iop(6/33=2) iop(6/42=6)

holoCaM-CaMKII.loop4.water2.frame258 

   -3  1 
C         81.86609      -11.70294       80.74788
C         81.92027      -11.11444       82.12482
O         82.92883      -11.24749       82.80103
H         81.71386      -10.88468       80.01045
H         82.81281      -12.22785       80.50292
H         81.01950      -12.41630       80.67584
N         80.86245      -10.39843       82.58456
C         80.86815       -9.68743       83.85370
C         80.88812      -10.62989       85.06020
O         80.08195      -11.54802       85.10591
C         79.66692       -8.72402       83.89906
C         79.81600       -7.82915       85.07380
O         78.94048       -7.74544       85.91307
O         80.97766       -7.18484       85.24246
H         80.04890      -10.28739       81.95787
H         81.77783       -9.04951       83.86408
H         78.69839       -9.26954       83.92617
H         79.69100       -8.07911       82.99367
N         81.76834      -10.42474       86.09291
C         81.91417      -11.31460       87.25021
C         81.45416      -10.66127       88.56567
O         81.22722      -11.40966       89.50647
C         83.40620      -11.80111       87.34675
C         83.84738      -12.47120       86.01745
C         83.64903      -12.75429       88.53817
C         85.33294      -12.84934       85.96484
H         82.38332       -9.60692       86.04505
H         81.25527      -12.19910       87.10512
H         84.04372      -10.90136       87.50251
H         83.68446      -11.75654       85.18735
H         83.23298      -13.37683       85.82342
H         83.43866      -12.26025       89.50573
H         83.02643      -13.66867       88.44320
H         84.71425      -13.04717       88.61145
H         85.58505      -13.64291       86.69473
H         85.57657      -13.24010       84.95470
H         85.97219      -11.96432       86.16156
N         81.28350       -9.31065       88.72761
C         80.83700       -8.71062       89.99417
C         79.47335       -8.03135       89.88175
O         79.04239       -7.39998       90.83672
C         81.94908       -7.85589       90.66787
C         82.24917       -6.42837       90.26059
O         83.10129       -5.82463       90.89057
O         81.56687       -5.74769       89.32931
H         81.48262       -8.69343       87.93900
H         80.67733       -9.52055       90.73993
H         82.89093       -8.44559       90.63434
H         81.66430       -7.76265       91.73984
N         78.68318       -8.23314       88.78723
C         77.30677       -7.77397       88.67074
C         77.11293       -6.29017       88.42029
O         75.96124       -5.90201       88.27939
H         79.01974       -8.85747       88.04322
H         76.73696       -8.08992       89.57158
H         76.84870       -8.28792       87.79674
N         78.14134       -5.39467       88.32992
C         77.90266       -3.97078       88.07361
C         77.45362       -3.67188       86.63283
O         77.18725       -2.51360       86.34259
C         79.11837       -3.11010       88.49817
C         80.36892       -3.25774       87.68011
O         81.46187       -2.54886       88.01797
O         80.41005       -3.99154       86.71095
H         79.10236       -5.71714       88.49640
H         77.09076       -3.64293       88.76210
H         79.36207       -3.35506       89.55527
H         78.82573       -2.03866       88.46013
N         77.31222       -4.65256       85.68884
C         76.76506       -4.42039       84.35827
C         77.77949       -4.00744       83.30271
O         77.37605       -3.88292       82.15679
H         77.47770       -5.63250       85.94690
H         75.91761       -3.70158       84.40990
H         76.33618       -5.38248       84.00099
N         79.09810       -3.80036       83.58806
C         80.10929       -3.47394       82.57797
C         81.24318       -4.48891       82.59416
O         81.25560       -5.37937       83.42115
C         80.68944       -2.07107       82.85192
C         79.69069       -0.95813       82.51989
C         80.32659        0.39379       82.71575
N         80.71438        0.80442       83.94510
O         80.49625        1.12597       81.75185
H         79.41127       -3.88046       84.55912
H         79.67787       -3.49456       81.55345
H         81.57123       -1.89305       82.20092
H         81.03357       -2.01047       83.90830
H         78.77600       -1.03763       83.14358
H         79.39902       -1.06589       81.45053
H         80.56895        0.20591       84.77082
H         81.15428        1.72780       84.07258
N         82.25365       -4.38120       81.68286
C         83.43343       -5.23813       81.64834
C         84.65790       -4.36851       81.87080
O         84.83753       -3.40403       81.14183
C         83.51548       -5.97571       80.28039
C         84.84842       -6.72957       80.10629
C         82.35842       -6.97776       80.14195
H         82.19861       -3.63513       80.97479
H         83.40060       -6.01163       82.44184
H         83.44654       -5.22910       79.45807
H         84.98444       -7.48673       80.90512
H         84.87670       -7.24018       79.12040
H         85.70649       -6.02547       80.12772
H         82.41866       -7.75251       80.93856
H         81.37778       -6.46484       80.21729
H         82.40761       -7.48656       79.15529
N         85.58344       -4.70948       82.81905
C         86.84892       -3.99594       82.98122
C         87.97864       -4.84118       82.41889
O         87.73021       -5.95456       81.98047
C         87.10056       -3.53530       84.44098
C         87.52564       -4.60966       85.42092
N         86.69856       -5.60672       85.80086
O         88.64422       -4.55040       85.90955
H         85.43014       -5.56942       83.35557
H         86.82050       -3.06892       82.36929
H         86.21386       -2.99247       84.83003
H         87.93167       -2.79729       84.40176
H         85.73447       -5.66105       85.45750
H         87.01957       -6.31304       86.47979
N         89.24603       -4.34597       82.33863
C         90.32369       -5.07474       81.67306
C         90.65480       -6.39101       82.36135
O         91.18108       -7.27963       81.70457
C         91.57502       -4.18363       81.57405
C         92.66122       -4.77245       80.70964
C         92.42665       -5.01481       79.34492
C         93.92442       -5.05908       81.25070
C         93.44051       -5.53178       78.53509
C         94.93794       -5.57544       80.43810
C         94.69947       -5.81044       79.07583
O         95.67100       -6.29708       78.27815
H         89.42613       -3.39544       82.69368
H         89.95781       -5.29774       80.64607
H         91.94648       -3.98519       82.60418
H         91.29103       -3.20761       81.12432
H         91.46250       -4.79499       78.90385
H         94.12772       -4.87812       82.29883
H         93.24829       -5.70848       77.48424
H         95.90888       -5.78691       80.86733
H         96.55963       -6.48954       78.60941
N         90.39671       -6.58285       83.68503
C         90.62838       -7.85098       84.36580
C         89.66208       -8.88614       83.81327
O         90.09227       -9.92758       83.33888
C         90.45605       -7.66295       85.89026
C         90.89816       -8.89577       86.69141
C         90.82376       -8.62391       88.16748
O         89.75347       -8.36530       88.69446
O         91.94266       -8.66130       88.91713
H         90.02558       -5.79388       84.23061
H         91.68398       -8.16278       84.19710
H         89.40538       -7.39541       86.13731
H         91.10898       -6.81697       86.20168
H         91.95203       -9.13674       86.42892
H         90.26296       -9.77292       86.44599
N         88.32434       -8.61661       83.80352
C         87.30558       -9.50450       83.23839
C         87.46801       -9.69950       81.73246
O         86.78307      -10.55437       81.18758
C         85.90307       -8.91199       83.50797
C         85.58688       -8.86113       85.01379
C         84.37743       -8.03882       85.34672
O         84.03069       -7.88061       86.63763
O         83.73231       -7.47516       84.47857
H         88.02439       -7.71706       84.20821
H         87.38774      -10.49936       83.73065
H         85.10558       -9.50108       83.00302
H         85.89421       -7.88558       83.08257
H         86.42673       -8.41287       85.57413
H         85.44185       -9.89258       85.38521
N         88.32435       -8.93891       80.99099
C         88.52430       -9.09819       79.56624
H         89.59996       -9.29570       79.37250
H         87.93172       -9.93537       79.14375
H         88.23631       -8.15904       79.04873
H         88.85867       -8.18913       81.43738
Ca        81.42923       -6.42125       87.24338
O         83.35652       -3.52847       85.29576
H         83.72105       -2.94609       84.58321
H         83.36910       -2.96093       86.10673
O         84.51931       -4.92089       87.86392
H         84.84864       -5.74060       88.31085
H         85.30365       -4.31656       87.84518

Ca 1.0



