%chk=holoCaM-CaMKII.loop4.water2.frame285.chk
%nprocshared=20
%mem=10GB
%nosave
#b3lyp/svp scf=(tight,noincore,xqc) Test 
#IOP(5/87=12) Density=Current Pop=(MK,readradii) iop(6/33=2) iop(6/42=6)

holoCaM-CaMKII.loop4.water2.frame285 

   -3  1 
C         51.85591       25.16021       81.34476
C         50.91173       24.23585       82.04844
O         49.82523       23.98610       81.54961
H         52.79944       24.62131       81.11874
H         51.41268       25.53470       80.39883
H         52.08126       26.02666       82.00307
N         51.26199       23.72013       83.25414
C         50.40214       22.86424       84.05065
C         49.73542       23.73033       85.12123
O         50.40745       24.39350       85.89782
C         51.22987       21.68602       84.59498
C         50.49476       20.97597       85.67165
O         50.91942       21.04936       86.81018
O         49.32496       20.36431       85.41838
H         52.15954       24.01745       83.66827
H         49.59404       22.42239       83.42427
H         52.16857       22.07777       85.03714
H         51.49365       20.97832       83.77878
N         48.37496       23.77682       85.15687
C         47.55083       24.71952       85.90630
C         47.05802       24.11575       87.22582
O         47.06691       24.82066       88.22505
C         46.38693       25.19806       84.96669
C         47.00278       25.86156       83.69241
C         45.41867       26.14267       85.69408
C         46.00829       26.49505       82.71575
H         47.87902       23.19351       84.47696
H         48.14090       25.62969       86.16009
H         45.78045       24.31880       84.65504
H         47.56940       25.09183       83.12400
H         47.71793       26.65613       83.99256
H         44.57688       26.42453       85.02679
H         44.95664       25.62525       86.56075
H         45.94116       27.05650       86.04000
H         46.56258       26.86180       81.82414
H         45.24109       25.77277       82.38191
H         45.50506       27.36841       83.17610
N         46.66218       22.81373       87.31387
C         46.18899       22.17117       88.55579
C         47.28921       21.41654       89.31475
O         47.01605       20.96073       90.41691
C         44.90826       21.30968       88.31657
C         45.03009       20.24045       87.25930
O         46.19394       20.11647       86.61155
O         44.06111       19.57238       86.93828
H         46.77961       22.26004       86.46296
H         45.88616       22.96615       89.27237
H         44.09466       21.99565       87.99989
H         44.60138       20.82718       89.26946
N         48.57269       21.35153       88.86069
C         49.69494       20.90092       89.68070
C         49.90358       19.39969       89.71750
O         50.03902       18.84804       90.80015
H         48.79934       21.79839       87.96332
H         49.62492       21.33586       90.70364
H         50.62115       21.32657       89.24614
N         49.99335       18.68482       88.55993
C         50.30185       17.25956       88.47759
C         51.45663       16.95140       87.51036
O         51.70310       15.77450       87.28171
C         49.02723       16.47750       88.09624
C         48.32787       16.98626       86.87405
O         48.89324       17.00954       85.79776
O         47.04956       17.39612       86.96360
H         49.79148       19.16718       87.67887
H         50.61016       16.85734       89.46823
H         48.31254       16.54517       88.94346
H         49.27484       15.40341       87.95479
N         52.24420       17.91601       86.94212
C         53.35543       17.58414       86.05299
C         52.92885       17.14262       84.66122
O         53.78424       16.69492       83.91113
H         52.11428       18.90266       87.19727
H         53.98116       16.80364       86.53890
H         54.00010       18.47727       85.90435
N         51.64327       17.27384       84.23040
C         51.19614       16.98227       82.86912
C         50.37767       18.13040       82.31840
O         49.79420       18.88589       83.08189
C         50.34540       15.70161       82.83350
C         51.21867       14.43997       82.78148
C         50.39020       13.17965       82.70728
N         50.93482       12.03932       82.22556
O         49.21870       13.18465       83.05827
H         50.95222       17.65895       84.88174
H         52.06326       16.86103       82.18277
H         49.74543       15.68012       81.89571
H         49.63995       15.69277       83.69143
H         51.93259       14.37143       83.62974
H         51.80923       14.51198       81.84025
H         51.90805       12.02223       81.88717
H         50.36957       11.18017       82.15600
N         50.28105       18.29994       80.96772
C         49.52329       19.37930       80.35636
C         48.44668       18.77535       79.47562
O         48.77113       18.26101       78.41309
C         50.47532       20.30200       79.54495
C         49.73054       21.48233       78.90058
C         51.61259       20.84516       80.42651
H         50.78208       17.64753       80.34520
H         49.04788       19.99343       81.13859
H         50.93483       19.69549       78.73368
H         49.32750       22.16473       79.67662
H         50.42860       22.05363       78.25177
H         48.89199       21.13300       78.26477
H         52.30281       21.46844       79.81937
H         51.20618       21.46149       81.25494
H         52.20804       20.01621       80.86365
N         47.13875       18.77771       79.86627
C         46.07397       18.25053       79.02069
C         45.65416       19.30263       78.01453
O         46.20781       20.38711       78.03434
C         44.89798       17.67195       79.85295
C         43.81172       18.63471       80.28317
N         44.05608       19.67968       81.09809
O         42.66942       18.44121       79.89369
H         46.90700       19.12880       80.79934
H         46.48308       17.37085       78.47641
H         45.30646       17.12818       80.73214
H         44.39502       16.91161       79.21589
H         44.99637       19.86292       81.45390
H         43.28981       20.30374       81.38766
N         44.68252       19.05697       77.10096
C         44.25580       20.03829       76.10914
C         43.67627       21.29032       76.76008
O         44.02128       22.38639       76.33982
C         43.19367       19.41439       75.18964
C         42.88601       20.33645       74.04003
C         43.81329       20.49025       72.99512
C         41.68704       21.06204       74.01189
C         43.54029       21.35517       71.93323
C         41.42328       21.93979       72.95759
C         42.34864       22.08717       71.91281
O         42.10534       22.92957       70.88948
H         44.23926       18.12686       77.10406
H         45.13244       20.31808       75.48048
H         42.28530       19.20525       75.79577
H         43.54955       18.44634       74.77367
H         44.74297       19.93324       72.99960
H         40.96943       20.96483       74.81712
H         44.25826       21.45937       71.12910
H         40.50152       22.50649       72.95664
H         41.29818       23.46127       70.84399
N         42.77242       21.19654       77.78100
C         42.13928       22.36562       78.39514
C         43.16268       23.35239       78.94027
O         42.86351       24.53348       79.04788
C         41.13029       21.98093       79.50182
C         40.06156       20.98943       79.00352
C         38.85530       20.99355       79.89505
O         38.19489       22.01391       80.01410
O         38.46644       19.87224       80.52983
H         42.53002       20.25738       78.11741
H         41.57424       22.88477       77.58950
H         40.64272       22.92492       79.82719
H         41.63720       21.54407       80.39015
H         40.49122       19.96413       78.95241
H         39.71929       21.27543       77.98821
N         44.39970       22.92242       79.29465
C         45.49574       23.78744       79.70361
C         46.14591       24.39950       78.47439
O         46.25976       25.61531       78.41072
C         46.46795       22.95782       80.56886
C         45.75627       22.62991       81.89864
C         46.48149       21.70910       82.81519
O         46.07997       21.63055       84.09391
O         47.28940       20.90664       82.39210
H         44.58262       21.91015       79.26402
H         45.12844       24.61578       80.34844
H         47.38627       23.53795       80.79541
H         46.76429       22.03351       80.02728
H         44.75575       22.18847       81.73684
H         45.59357       23.57594       82.43998
N         46.55553       23.61558       77.43882
C         47.12857       24.11748       76.20728
H         48.12915       23.66156       76.05715
H         46.47680       23.82354       75.35559
H         47.23112       25.22171       76.20489
H         46.42568       22.60480       77.50128
Ca        47.39547       19.33120       84.91086
O         46.79536       16.45360       83.46736
H         46.99827       15.83108       84.20958
H         45.86773       16.22742       83.20691
O         44.79960       18.71659       83.76121
H         44.40157       19.16867       84.54270
H         44.18115       17.96983       83.56777

Ca 1.0



