%chk=holoCaM-CaMKII.loop3.water2.frame85.chk
%nprocshared=20
%mem=10GB
%nosave
#b3lyp/svp scf=(tight,noincore,xqc) Test 
#IOP(5/87=12) Density=Current Pop=(MK,readradii) iop(6/33=2) iop(6/42=6)

holoCaM-CaMKII.loop3.water2.frame85 

   0  1 
C          0.54374       43.09123       58.42366
C          1.08135       42.12510       57.40815
O          0.32201       41.34332       56.85726
H         -0.54786       42.95120       58.57068
H          1.05539       42.92975       59.39742
H          0.73413       44.13148       58.08616
N          2.41525       42.10520       57.14885
C          3.06767       41.18000       56.22993
C          3.78519       40.14988       57.07727
O          4.66063       40.51183       57.85092
C          3.96772       41.99449       55.27363
C          5.00532       41.26266       54.45606
O          6.17309       41.58342       54.60479
O          4.73515       40.33369       53.51815
H          3.01792       42.74572       57.69046
H          2.32615       40.65178       55.61310
H          4.53076       42.72871       55.89090
H          3.32109       42.57494       54.58414
N          3.40432       38.83704       57.01478
C          3.93533       37.78757       57.87771
C          4.75509       36.77613       57.09198
O          5.31423       35.88141       57.71129
C          2.77879       37.03386       58.57167
C          1.79347       37.94385       59.32107
C          0.68953       37.14707       60.05000
C         -0.14479       36.19590       59.16430
N         -0.80779       36.89218       58.06325
H          2.67940       38.56042       56.33846
H          4.60036       38.23350       58.64914
H          3.20486       36.29349       59.28405
H          2.21724       36.48435       57.78626
H          1.32276       38.65354       58.60751
H          2.34465       38.54238       60.07802
H          0.00504       37.87419       60.53838
H          1.15867       36.53430       60.84999
H         -0.91462       35.70959       59.80332
H          0.49477       35.38368       58.75615
H         -1.40317       36.21170       57.53751
H         -1.41343       37.66135       58.43040
H         -0.09438       37.27528       57.40389
N          4.88725       36.85651       55.73631
C          5.71496       35.95395       54.94707
C          6.91537       36.71717       54.37759
O          7.72275       36.10973       53.68922
C          4.83300       35.23334       53.89192
C          4.21357       36.19789       52.92961
O          2.98844       36.69679       53.18086
O          4.91672       36.74535       52.09930
H          4.41910       37.61578       55.22266
H          6.14118       35.15370       55.59009
H          4.02104       34.70452       54.43792
H          5.41222       34.46828       53.33136
N          7.14504       38.03058       54.70389
C          8.35723       38.75520       54.36189
C          8.51636       39.13148       52.90637
O          9.53431       39.73714       52.59968
H          6.49635       38.53380       55.32463
H          9.23473       38.16424       54.70085
H          8.36359       39.71257       54.92977
N          7.58457       38.84816       51.94990
C          7.77446       39.23315       50.55246
C          7.69660       40.74934       50.31634
O          7.86974       41.15647       49.17580
C          6.81640       38.46795       49.60362
C          5.34581       38.77457       49.72066
N          4.48351       38.24817       48.82189
O          4.92351       39.49706       50.60583
H          6.74728       38.31653       52.20944
H          8.78934       38.89032       50.24883
H          6.95723       37.37343       49.74219
H          7.12020       38.71283       48.56272
H          4.82188       37.63776       48.06355
H          3.47886       38.46824       48.86872
N          7.46969       41.64769       51.32462
C          7.45554       43.08926       51.11226
C          6.10608       43.62491       50.67633
O          6.01784       44.82108       50.43340
H          7.36824       41.32553       52.29329
H          8.24568       43.36674       50.37953
H          7.71293       43.59598       52.06659
N          5.01343       42.81955       50.55749
C          3.70770       43.27139       50.09607
C          2.61906       42.92757       51.09392
O          2.60711       41.81734       51.61202
C          3.36925       42.58619       48.75925
C          4.39183       42.88264       47.68954
C          5.09340       41.83216       47.07535
C          4.65150       44.20590       47.29088
C          6.04015       42.10021       46.08337
C          5.60361       44.47177       46.30371
C          6.30115       43.41846       45.69578
O          7.22060       43.66051       44.74023
H          5.10952       41.82267       50.76899
H          3.69766       44.36858       49.91861
H          2.37668       42.94378       48.40632
H          3.29714       41.48810       48.92141
H          4.90724       40.80452       47.36071
H          4.12222       45.03416       47.74409
H          6.57155       41.28100       45.61615
H          5.79680       45.49647       46.01211
H          7.43157       44.55801       44.44575
N          1.58289       43.79021       51.28857
C          0.39915       43.47199       52.07758
C         -0.76332       43.30248       51.11955
O         -1.04574       44.21060       50.34681
C          0.09045       44.58555       53.12060
C          1.27031       44.74530       54.10799
C         -1.21659       44.25738       53.88281
C          1.10802       45.92626       55.06751
H          1.58494       44.68615       50.77445
H          0.54017       42.51991       52.63844
H         -0.05102       45.54470       52.57376
H          2.20484       44.92370       53.53463
H          1.38980       43.81275       54.69887
H         -2.07441       44.16675       53.18569
H         -1.11513       43.30173       54.44139
H         -1.49282       45.06134       54.59140
H          0.23457       45.79751       55.73702
H          2.00939       46.00349       55.71034
H          0.99748       46.87139       54.49428
N         -1.51935       42.17343       51.16722
C         -2.70086       41.95095       50.35016
C         -3.94969       42.05244       51.20227
O         -3.85270       42.21801       52.41195
C         -2.61904       40.56592       49.67657
O         -2.65760       39.53670       50.63381
H         -1.28322       41.46617       51.87108
H         -2.77428       42.73034       49.56064
H         -1.70353       40.49096       49.04667
H         -3.47809       40.41713       48.99026
H         -1.72137       39.28578       50.84099
N         -5.17462       41.96662       50.62131
C         -6.42095       41.98342       51.37432
C         -6.49574       40.79065       52.30249
O         -6.89107       40.95362       53.44733
C         -7.61735       41.94505       50.42068
H         -5.22066       41.86832       49.59424
H         -6.50376       42.92830       51.95863
H         -7.59227       42.83138       49.75167
H         -7.60296       41.02303       49.80143
H         -8.56476       41.97523       51.00154
N         -6.11720       39.55475       51.86390
C         -6.21129       38.35076       52.67861
C         -5.48512       38.50777       54.00053
O         -6.12835       38.43003       55.03863
C         -5.65490       37.14382       51.90269
H         -5.75254       39.46960       50.90237
H         -7.28591       38.15912       52.89007
H         -5.73854       36.21697       52.50793
H         -6.22104       37.00334       50.95788
H         -4.58611       37.29539       51.63535
N         -4.14068       38.70307       54.04331
C         -3.40179       38.78103       55.30119
C         -3.68361       40.04818       56.09742
O         -3.28548       40.10994       57.25277
C         -1.89991       38.64760       55.02504
C         -1.32059       39.84481       54.26359
C          0.04557       39.49562       53.78069
O          0.31776       39.56110       52.59367
O          0.95340       39.02735       54.64856
H         -3.62898       38.71295       53.14929
H         -3.69879       37.89779       55.91002
H         -1.75565       37.71589       54.43331
H         -1.34148       38.54245       55.97606
H         -1.28169       40.73199       54.92997
H         -1.95226       40.10185       53.39671
N         -4.30727       41.12062       55.53613
C         -4.54697       42.34569       56.26595
H         -5.22466       42.14877       57.12268
H         -3.58618       42.76390       56.63616
H         -5.02254       43.09529       55.59755
H         -4.59450       41.08878       54.55125
Ca         3.09968       38.92073       52.91685
O          1.22022       39.85437       49.65749
H          1.05387       40.17753       48.73677
H          0.50040       39.19591       49.82212
O          2.06257       36.80762       50.24228
H          1.27681       36.29475       50.55561
H          2.62986       36.14088       49.77925

Ca 1.0



