%chk=holoCaM-CaMKII.loop3.water3.frame249.chk
%nprocshared=20
%mem=10GB
%nosave
#b3lyp/svp scf=(tight,noincore,xqc) Test 
#IOP(5/87=12) Density=Current Pop=(MK,readradii) iop(6/33=2) iop(6/42=6)

holoCaM-CaMKII.loop3.water3.frame249 

   0  1 
C         88.70392        6.70196       56.75139
C         87.78122        6.90635       57.91358
O         87.42008        5.93137       58.55657
H         89.63744        6.21793       57.10702
H         88.21504        6.05160       55.99742
H         88.96921        7.66801       56.27238
N         87.35653        8.15785       58.24086
C         86.49805        8.44394       59.37688
C         85.17716        8.99417       58.86927
O         85.16199        9.98196       58.14849
C         87.24627        9.39376       60.32561
C         86.52139        9.69359       61.60065
O         85.38658        9.29726       61.79868
O         87.14523       10.41481       62.54374
H         87.66392        8.95604       57.66353
H         86.29933        7.51460       59.95399
H         87.48473       10.35106       59.81536
H         88.19938        8.89721       60.61069
N         84.02147        8.35275       59.19598
C         82.70275        8.68612       58.66760
C         82.33358       10.13801       58.93486
O         81.99970       10.82896       57.98250
C         81.67053        7.67888       59.23366
C         80.29468        7.70211       58.54601
C         79.43400        6.52456       59.04591
C         78.08845        6.42625       58.31664
N         77.32516        5.26783       58.78818
H         84.09450        7.54164       59.82735
H         82.72984        8.52559       57.56614
H         81.55594        7.81503       60.33012
H         82.09006        6.66508       59.04809
H         80.44321        7.58234       57.45069
H         79.78141        8.66842       58.73827
H         79.25774        6.62791       60.13942
H         79.98151        5.57466       58.85806
H         78.27032        6.31698       57.22413
H         77.49908        7.35314       58.48729
H         76.42233        5.21221       58.26362
H         77.86305        4.38574       58.62047
H         77.11827        5.36136       59.80914
N         82.39905       10.67802       60.18822
C         82.02327       12.06657       60.48212
C         83.17735       12.93054       60.99296
O         82.94022       14.09790       61.27442
C         80.84276       12.08463       61.47653
C         81.14390       11.54393       62.85103
O         82.25271       11.13076       63.14624
O         80.16806       11.53157       63.77701
H         82.71945       10.07396       60.95915
H         81.66045       12.56654       59.55780
H         80.00784       11.49567       61.04081
H         80.49347       13.13287       61.59793
N         84.44784       12.45606       61.11699
C         85.55581       13.27357       61.58517
C         85.39388       13.69369       63.02904
O         85.39328       14.88812       63.29264
H         84.65696       11.49310       60.83220
H         85.66173       14.16582       60.92814
H         86.49963       12.69566       61.50731
N         85.28981       12.75932       64.02165
C         85.21749       13.10371       65.44481
C         86.40621       12.56435       66.24257
O         86.52457       12.90961       67.41005
C         83.88346       12.62485       66.05617
C         83.78628       11.12015       66.20532
N         83.60169       10.56305       67.42503
O         83.87032       10.39733       65.22542
H         85.27407       11.76825       63.74594
H         85.24342       14.21036       65.54924
H         83.04283       12.99490       65.43006
H         83.77625       13.09012       67.06033
H         83.52285       11.14672       68.27027
H         83.53255        9.54017       67.52622
N         87.31167       11.70482       65.69189
C         88.47976       11.18554       66.37916
C         88.42574        9.68300       66.56844
O         89.45089        9.12253       66.92894
H         87.19201       11.38742       64.72702
H         88.63138       11.65229       67.37554
H         89.36292       11.43748       65.75261
N         87.26905        8.96816       66.41700
C         87.18449        7.52452       66.65119
C         86.51535        6.81671       65.45924
O         86.68601        7.55055       64.29279
C         86.33050        7.29114       67.90738
C         86.98398        7.92390       69.10648
C         88.16806        7.38073       69.62881
C         86.43057        9.07058       69.69869
C         88.78929        7.97443       70.72971
C         87.05994        9.67013       70.79224
C         88.24171        9.12207       71.31269
O         88.85926        9.68944       72.36775
H         86.39488        9.46314       66.18567
H         88.19964        7.09243       66.79158
H         86.16482        6.21148       68.11019
H         85.33617        7.75396       67.72576
H         88.60592        6.49510       69.18469
H         85.52421        9.51174       69.30431
H         89.69953        7.54337       71.12640
H         86.62987       10.56140       71.23111
H         88.51672       10.48726       72.79505
N         86.95305        5.40956       65.29297
C         86.10860        4.62959       64.33797
C         85.58507        3.30202       64.91416
O         86.04776        2.83941       65.94786
C         86.87599        4.33787       63.00210
C         88.21508        3.60554       63.29258
C         87.10277        5.60838       62.16943
C         89.01883        3.23605       62.04389
H         86.93884        4.97513       66.24155
H         85.18183        5.19524       64.11878
H         86.23386        3.68255       62.37164
H         88.00050        2.66444       63.84183
H         88.85999        4.24278       63.93621
H         87.82878        6.28810       62.65479
H         87.50350        5.35474       61.16864
H         86.13798        6.12563       61.99314
H         89.93473        2.68715       62.34921
H         88.41875        2.58891       61.37118
H         89.34988        4.14145       61.49453
N         84.55792        2.66378       64.27658
C         83.93376        1.41932       64.72482
C         83.88441        0.39914       63.58761
O         84.40032        0.67490       62.51669
C         82.51410        1.73942       65.22636
O         81.72226        2.24719       64.18342
H         84.14868        3.12020       63.44910
H         84.49339        0.97973       65.57923
H         82.56736        2.49175       66.04240
H         82.05754        0.82303       65.66705
H         80.84225        1.79015       64.23157
N         83.24652       -0.79724       63.74224
C         83.08843       -1.78036       62.66876
C         82.31898       -1.20595       61.48939
O         82.79736       -1.29571       60.36775
C         82.33962       -3.01477       63.18724
H         82.83474       -1.01461       64.66221
H         84.09047       -2.12221       62.32523
H         82.90473       -3.47934       64.02222
H         81.32525       -2.74232       63.55071
H         82.23521       -3.76712       62.37530
N         81.11808       -0.58962       61.68253
C         80.29790       -0.03204       60.60764
C         81.08472        0.92364       59.73843
O         81.06858        0.79185       58.52247
C         79.10315        0.72739       61.20935
H         80.78153       -0.49262       62.65330
H         79.90196       -0.85413       59.97196
H         78.46723        1.15287       60.40312
H         78.48129        0.04644       61.82657
H         79.45175        1.56420       61.85500
N         81.79042        1.92405       60.31812
C         82.50733        2.95461       59.57906
C         83.59052        2.33340       58.71086
O         83.57433        2.54471       57.50641
C         83.08454        3.98763       60.56731
C         81.95981        4.65615       61.39794
C         82.53137        5.58425       62.41086
O         82.37644        5.36606       63.60184
O         83.26617        6.63233       62.01789
H         81.80423        1.94172       61.34739
H         81.79200        3.50010       58.92276
H         83.64122        4.77055       60.00595
H         83.80144        3.47777       61.24347
H         81.35583        3.90784       61.94548
H         81.27205        5.21083       60.73865
N         84.53878        1.52152       59.25522
C         85.57005        0.84989       58.48948
H         86.56783        1.13590       58.88269
H         85.44784       -0.24937       58.59840
H         85.52906        1.09968       57.40894
H         84.51704        1.34322       60.26347
Ca        84.54732        7.52534       63.59265
O         80.54507        8.06905       62.89397
H         80.03046        8.72296       62.35790
H         79.87685        7.66214       63.50078
O         83.21765        6.46319       66.47763
H         82.32157        6.14120       66.20780
H         83.04243        7.04592       67.25839
O         81.30791        8.82690       65.74021
H         80.78931        9.63158       65.49151
H         80.81901        8.44813       66.51284

Ca 1.0



