%chk=holoCaM.loop3.water2.frame28.chk
%nprocshared=20
%mem=10GB
%nosave
#b3lyp/svp scf=(tight,noincore,xqc) Test 
#IOP(5/87=12) Density=Current Pop=(MK,readradii) iop(6/33=2) iop(6/42=6)

holoCaM.loop3.water2.frame28 

   0  1 
C         73.97002      103.17294       29.63154
C         72.94733      104.23865       29.36642
O         72.58196      104.95676       30.28582
H         74.90469      103.63901       30.00513
H         73.57995      102.46369       30.39043
H         74.20778      102.60112       28.70869
N         72.43833      104.39814       28.11602
C         71.44167      105.40419       27.77587
C         70.16103      105.16292       28.56896
O         69.67695      104.04054       28.61183
C         71.18452      105.36242       26.25914
C         70.29494      106.45893       25.75099
O         69.84435      107.45285       26.53478
O         69.94954      106.44044       24.58538
H         72.78318      103.77524       27.36821
H         71.85185      106.40980       28.00746
H         70.73631      104.38096       26.00715
H         72.14620      105.44836       25.70938
N         69.57041      106.19499       29.23039
C         68.37970      106.07591       30.07267
C         67.17627      105.46121       29.35009
O         66.39220      104.80734       30.02417
C         68.09984      107.46339       30.69501
C         66.87705      107.59058       31.61329
C         66.91280      108.97579       32.28573
C         65.63825      109.30297       33.06698
N         65.75933      110.61083       33.71633
H         70.01316      107.12364       29.14422
H         68.62994      105.38184       30.90671
H         67.98794      108.21153       29.88017
H         69.00823      107.72868       31.28327
H         66.88444      106.80677       32.40119
H         65.95835      107.48100       30.99704
H         67.03571      109.75952       31.51376
H         67.79075      109.01760       32.96907
H         65.44824      108.52507       33.83754
H         64.77920      109.32276       32.35956
H         66.52290      110.58503       34.43120
H         65.97105      111.35322       33.00955
H         64.85918      110.84693       34.19217
N         66.97576      105.58302       28.00234
C         65.89053      104.89604       27.28313
C         66.41137      104.02030       26.13239
O         65.59625      103.42159       25.44415
C         64.79920      105.91152       26.85871
C         65.24288      106.98624       25.91376
O         64.53190      107.95610       25.71274
O         66.43041      106.89390       25.31001
H         67.61608      106.18418       27.46556
H         65.35941      104.19983       27.96963
H         64.46313      106.40951       27.79433
H         63.92098      105.38931       26.42081
N         67.74954      103.83373       25.91130
C         68.29257      102.90576       24.92761
C         68.20539      103.36149       23.48374
O         68.60011      102.58053       22.62898
H         68.42726      104.27961       26.53382
H         67.78774      101.92105       25.04773
H         69.36944      102.73833       25.13927
N         67.69774      104.57330       23.11093
C         67.48552      104.91340       21.70338
C         68.77287      105.16193       20.90415
O         68.68351      105.23873       19.68697
C         66.50367      106.09899       21.55966
C         67.13496      107.45116       21.78466
N         67.08875      108.39266       20.81168
O         67.68755      107.70202       22.84233
H         67.34988      105.20871       23.83666
H         66.95411      104.03755       21.26765
H         65.65253      105.95777       22.26290
H         66.08262      106.07792       20.53269
H         66.61793      108.20395       19.91433
H         67.51218      109.32003       20.95493
N         69.98402      105.35094       21.51072
C         71.23750      105.58818       20.79963
C         71.84769      106.96717       21.05439
O         72.97629      107.17953       20.63780
H         70.03861      105.31985       22.53305
H         71.11771      105.47336       19.70104
H         71.95605      104.81042       21.13702
N         71.14864      107.96727       21.66616
C         71.64665      109.32877       21.89187
C         71.46122      109.72269       23.34870
O         70.38956      109.52027       23.89773
C         70.85715      110.32098       21.00955
C         71.47369      110.51586       19.64246
C         70.86735      110.01849       18.47942
C         72.65878      111.26938       19.52818
C         71.43763      110.27220       17.22395
C         73.21533      111.53603       18.27474
C         72.60456      111.03953       17.11616
O         73.12257      111.30114       15.89824
H         70.17607      107.78110       21.94434
H         72.72607      109.43627       21.64280
H         70.85674      111.33787       21.46347
H         69.79455      110.00621       20.95931
H         69.95691      109.43738       18.54296
H         73.13652      111.67818       20.41088
H         70.96478      109.88437       16.33089
H         74.11414      112.13760       18.20524
H         73.91077      111.85159       15.78061
N         72.46553      110.37271       24.00649
C         72.38161      110.84705       25.38591
C         72.48650      112.36653       25.40650
O         73.37077      112.92332       24.77253
C         73.49495      110.17027       26.23590
C         73.22474      108.64337       26.27054
C         73.54433      110.75633       27.66267
C         74.24031      107.83456       27.07371
H         73.34302      110.56387       23.49877
H         71.40815      110.57135       25.84902
H         74.48339      110.36314       25.76233
H         73.23294      108.24882       25.23189
H         72.21861      108.46083       26.70187
H         74.37143      110.31145       28.24972
H         73.75095      111.84542       27.63556
H         72.58955      110.57966       28.19467
H         74.19429      108.09420       28.15110
H         73.99918      106.75542       26.98466
H         75.26443      108.00233       26.68422
N         71.63611      113.08826       26.19497
C         71.65826      114.54308       26.31198
C         72.24533      114.96541       27.65007
O         72.59822      114.11627       28.45349
C         70.21984      115.07717       26.15190
O         69.40135      114.56843       27.17243
H         70.96687      112.57676       26.78606
H         72.29992      114.98780       25.52148
H         69.82115      114.75860       25.16413
H         70.21725      116.18832       26.19721
H         68.51118      114.99214       27.06205
N         72.37698      116.29080       27.94944
C         72.87846      116.78173       29.23060
C         72.02394      116.26039       30.36568
O         72.56995      115.79006       31.35422
C         72.88561      118.31502       29.24737
H         72.08426      116.98212       27.24310
H         73.93041      116.44942       29.37817
H         73.28768      118.68400       30.21596
H         73.54047      118.69721       28.43501
H         71.86189      118.72173       29.10475
N         70.66630      116.26126       30.25930
C         69.78220      115.71323       31.27859
C         70.09707      114.25267       31.56110
O         70.34641      113.90788       32.70739
C         68.31838      115.83481       30.82304
H         70.24611      116.64377       29.39673
H         69.89728      116.30321       32.21473
H         68.06127      116.89860       30.63572
H         68.14229      115.26690       29.88320
H         67.63570      115.43947       31.60500
N         70.06377      113.33370       30.55623
C         70.20738      111.89534       30.77877
C         71.61447      111.47535       31.19074
O         71.79175      110.30740       31.51244
C         69.81892      111.11816       29.50324
C         68.37595      111.40450       29.05699
C         68.04629      110.65775       27.80701
O         68.67362      110.87343       26.78182
O         67.03565      109.76830       27.80404
H         69.85726      113.67631       29.60857
H         69.49906      111.60035       31.58570
H         69.91914      110.02471       29.68780
H         70.51688      111.39983       28.69088
H         68.21721      112.47983       28.84628
H         67.67569      111.10839       29.86016
N         72.67086      112.33470       31.17735
C         74.00860      111.90867       31.52914
H         74.71778      112.75706       31.42374
H         74.03134      111.55068       32.58006
H         74.33597      111.09035       30.85203
H         72.54302      113.31053       30.88788
Ca        68.05306      108.37878       25.58940
O         68.31179      111.48585       23.65433
H         69.20799      111.90587       23.68367
H         68.19005      111.22658       22.70648
O         65.77882      109.88788       23.39663
H         65.12875      109.74893       22.66310
H         65.22325      109.98525       24.20904

Ca 1.0



