%chk=holoCaM-CaMKII.loop1.water2.frame162.chk
%nprocshared=20
%mem=10GB
%nosave
#b3lyp/svp scf=(tight,noincore,xqc) Test 
#IOP(5/87=12) Density=Current Pop=(MK,readradii) iop(6/33=2) iop(6/42=6)

holoCaM-CaMKII.loop1.water2.frame162 

   0  1 
C        101.15998       86.29170       22.11864
C        101.44310       87.76525       22.10834
O        102.25302       88.21549       22.90277
H        100.39018       86.02099       21.36519
H        102.08881       85.72602       21.90094
H        100.78009       86.00102       23.12154
N        100.80469       88.58628       21.23112
C        100.97457       90.03581       21.22900
C        100.42611       90.59594       22.53235
O         99.22848       90.47039       22.74813
C        100.20711       90.61840       20.02091
C        100.21394       92.11430       19.96710
O        101.36410       92.79544       19.83217
O         99.15819       92.71892       20.02800
H        100.15934       88.15821       20.54852
H        102.05515       90.27903       21.11879
H         99.14881       90.27649       20.07104
H        100.64207       90.22213       19.07976
N        101.23647       91.20540       23.45338
C        100.73875       91.69745       24.73925
C        100.82722       93.20998       24.89115
O        100.37576       93.69895       25.91823
C        101.42919       90.97717       25.92500
C        101.19584       89.44952       25.98328
C         99.72506       89.00336       25.84416
C         98.76405       89.65100       26.85535
N         97.38019       89.28198       26.55559
H        102.24256       91.29973       23.25160
H         99.65239       91.50534       24.82061
H        101.03064       91.40146       26.87100
H        102.52372       91.17628       25.91750
H        101.60946       89.07128       26.94343
H        101.76762       88.96627       25.16982
H         99.67056       87.89710       25.93691
H         99.38109       89.24628       24.82507
H         98.83449       90.75721       26.80704
H         99.03117       89.33468       27.88636
H         97.13035       89.59438       25.58764
H         97.25332       88.24765       26.63388
H         96.74203       89.76191       27.23034
N        101.29302       94.02459       23.90149
C        101.16476       95.48236       23.94900
C        100.18546       95.97087       22.88041
O        100.01304       97.17428       22.74870
C        102.54378       96.17230       23.90126
C        103.30772       96.00866       22.62874
O        104.45439       96.42172       22.56126
O        102.78440       95.36441       21.57840
H        101.66350       93.60368       23.04178
H        100.73095       95.80277       24.92050
H        103.15560       95.75408       24.73118
H        102.42513       97.26237       24.08085
N         99.43109       95.09049       22.15125
C         98.35334       95.50129       21.26682
C         98.78010       96.05402       19.92172
O         97.88990       96.41010       19.16210
H         99.51521       94.07833       22.31985
H         97.70393       96.22658       21.80120
H         97.72391       94.61091       21.04769
N        100.08354       96.13465       19.52006
C        100.46684       96.63690       18.19711
C        100.04698       95.72390       17.02804
O        100.32534       96.08647       15.89327
C        101.97383       96.99558       18.13386
C        102.93271       95.87830       18.41762
O        103.90326       96.04700       19.33352
O        102.89247       94.84706       17.77737
H        100.82329       95.86088       20.17718
H         99.95261       97.61109       18.03980
H        102.17789       97.81198       18.86078
H        102.19703       97.39525       17.12154
N         99.33064       94.57323       17.20287
C         98.81390       93.76932       16.10211
C         99.82313       92.83919       15.46538
O         99.41864       92.08635       14.58885
H         99.03808       94.29084       18.14178
H         98.33303       94.42450       15.34297
H         98.02144       93.10426       16.50910
N        101.12794       92.79545       15.85328
C        102.08884       91.82700       15.33457
C        102.71287       91.03564       16.47597
O        102.53265       91.38793       17.63450
C        103.17673       92.53139       14.48491
C        102.59103       93.18061       13.22101
O        103.88541       93.47594       15.24682
H        101.45359       93.45586       16.56404
H        101.57281       91.09028       14.68026
H        103.90631       91.77110       14.13190
H        103.33080       94.29579       15.32114
H        103.40583       93.64766       12.62757
H        102.09280       92.41220       12.59326
H        101.84998       93.96583       13.48232
N        103.45335       89.92665       16.20708
C        104.11602       89.11060       17.22074
C        105.59935       89.11979       16.91258
O        105.97339       88.89087       15.76850
C        103.53865       87.66478       17.24328
C        102.01652       87.70509       17.54527
C        104.27258       86.81863       18.31024
C        101.33211       86.33832       17.46799
H        103.55143       89.63477       15.22101
H        103.95527       89.52853       18.24008
H        103.69682       87.20235       16.24402
H        101.51076       88.35482       16.80034
H        101.84535       88.13835       18.55443
H        104.11840       87.25159       19.32272
H        103.92048       85.76909       18.31710
H        105.36125       86.77506       18.10722
H        101.71978       85.63696       18.23329
H        100.24443       86.46163       17.65444
H        101.47120       85.89874       16.45769
N        106.50694       89.34772       17.89891
C        107.93946       89.44650       17.66233
C        108.63909       88.16991       18.07854
O        108.01007       87.26263       18.60755
C        108.52027       90.66251       18.43845
C        107.84639       91.96952       18.03150
O        108.34360       90.46497       19.81681
H        106.17278       89.42067       18.86791
H        108.13975       89.57833       16.57549
H        109.60734       90.74859       18.21783
H        108.89392       91.14364       20.28790
H        107.97816       92.15411       16.94550
H        106.76699       91.92035       18.28042
H        108.29525       92.81743       18.59262
N        109.97518       88.04715       17.85988
C        110.77097       86.90664       18.29970
C        110.67517       86.76539       19.80617
O        110.49395       85.66230       20.29972
C        112.25736       87.08338       17.89665
C        112.44671       87.09149       16.37609
O        112.77246       88.27602       18.43773
H        110.45481       88.82935       17.39001
H        110.40194       85.97136       17.82092
H        112.81437       86.20148       18.29633
H        113.69368       88.08713       18.75461
H        112.06344       86.14592       15.93771
H        111.91912       87.94465       15.90194
H        113.52737       87.17846       16.13679
N        110.76869       87.87297       20.59013
C        110.70395       87.85877       22.04470
C        109.39207       87.26862       22.52494
O        109.40165       86.36670       23.35089
C        110.84282       89.29866       22.61681
C        112.09453       90.07752       22.15696
C        113.41049       89.35559       22.46358
C        114.60571       90.17012       21.95377
N        115.86257       89.47568       22.22651
H        110.87379       88.77682       20.11201
H        111.53931       87.24556       22.44459
H        110.85065       89.23437       23.72715
H        109.95990       89.90783       22.32233
H        112.09093       91.06702       22.66456
H        112.04359       90.28153       21.06826
H        113.42745       88.37203       21.94916
H        113.49820       89.19615       23.56001
H        114.61911       91.16767       22.44610
H        114.50591       90.32211       20.85487
H        116.65595       90.04657       21.85572
H        115.98525       89.34959       23.25732
H        115.86753       88.54273       21.75304
N        108.21626       87.76375       22.05379
C        106.90464       87.35852       22.55526
C        106.58006       85.90433       22.26298
O        105.62602       85.40113       22.84037
C        105.80701       88.26623       21.96507
C        106.06731       89.72989       22.34489
C        105.11713       90.67875       21.71412
O        104.91215       90.67190       20.51211
O        104.69769       91.70940       22.44593
H        108.27645       88.49217       21.33244
H        106.91189       87.49495       23.66035
H        104.80606       87.96574       22.34048
H        105.81480       88.15579       20.85891
H        107.06433       90.06592       22.01541
H        106.03632       89.85257       23.44947
N        107.31010       85.17015       21.37674
C        107.07160       83.76812       21.10973
H        108.00320       83.20090       21.31786
H        106.26141       83.34739       21.74091
H        106.79987       83.63642       20.04224
H        108.06872       85.61543       20.84793
Ca       103.58819       93.32261       21.43885
O        105.52540       94.02214       17.69301
H        106.09238       94.82942       17.76335
H        105.82123       93.58508       16.85619
O        106.70621       94.03772       20.89614
H        107.41780       93.37148       21.06930
H        106.27097       94.16778       21.77583

Ca 1.0



