%chk=holoCaM-CaMKII.loop2.water2.frame408.chk
%nprocshared=20
%mem=10GB
%nosave
#b3lyp/svp scf=(tight,noincore,xqc) Test 
#IOP(5/87=12) Density=Current Pop=(MK,readradii) iop(6/33=2) iop(6/42=6)

holoCaM-CaMKII.loop2.water2.frame408 

   -2  1 
C         45.48922       50.71373       28.71072
C         46.68564       49.82780       28.49595
O         47.58848       49.80724       29.31809
H         44.58791       50.07166       28.83899
H         45.60318       51.33487       29.62234
H         45.32720       51.36986       27.83044
N         46.70856       49.01207       27.41312
C         47.68353       47.94929       27.19795
C         49.10657       48.40969       26.88886
O         49.29570       49.23686       26.00921
C         47.16804       47.05986       26.05828
C         47.95868       45.81024       25.94338
O         48.31744       45.14491       27.05890
O         48.21320       45.35635       24.84120
H         45.90599       49.07584       26.76507
H         47.68694       47.31826       28.11524
H         47.13263       47.59634       25.08475
H         46.13718       46.74784       26.30988
N         50.16260       47.80806       27.52183
C         51.57264       48.07282       27.23787
C         52.35052       46.81271       26.79686
O         53.54693       46.93249       26.56774
C         52.20647       48.64471       28.51204
H         49.95849       47.10819       28.24543
H         51.66913       48.83486       26.43495
H         52.18718       47.88959       29.32880
H         53.25869       48.95026       28.33024
H         51.63778       49.53831       28.84822
N         51.76739       45.57546       26.71159
C         52.50726       44.32647       26.46153
C         51.86513       43.36963       25.43260
O         52.60255       42.57400       24.86704
C         52.72581       43.57841       27.79200
C         51.48895       43.54865       28.62574
O         51.52997       43.91933       29.78841
O         50.30368       43.25900       28.08011
H         50.77881       45.49743       26.95977
H         53.52850       44.54526       26.07918
H         53.50256       44.09892       28.39414
H         53.08421       42.54413       27.60118
N         50.52703       43.33999       25.16347
C         49.91178       42.45258       24.17612
C         49.52371       41.07670       24.70056
O         49.06962       40.26477       23.90719
H         49.92063       43.99767       25.64378
H         50.57638       42.36630       23.29039
H         48.96596       42.91458       23.81935
N         49.65123       40.74025       26.01356
C         49.30834       39.42625       26.56082
C         47.78907       39.15167       26.63672
O         47.42419       38.06924       27.07294
C         50.01962       39.25397       27.93002
C         49.53712       40.17861       29.00076
N         50.16248       40.23326       30.19373
O         48.58040       40.89486       28.79282
H         50.06280       41.43097       26.64494
H         49.77260       38.65453       25.91030
H         51.10026       39.46711       27.77242
H         49.92131       38.21353       28.30133
H         50.98679       39.65143       30.39712
H         49.82199       40.88184       30.90681
N         46.85109       40.05494       26.20604
C         45.41417       39.78659       26.17402
C         44.67922       40.02768       27.48431
O         43.47976       39.79514       27.51664
H         47.16077       40.93276       25.77845
H         45.23866       38.74992       25.81285
H         44.94486       40.46917       25.43247
N         45.31589       40.48314       28.59840
C         44.66260       40.70280       29.88634
C         45.02618       42.03585       30.50417
O         46.16178       42.46932       30.42017
C         45.04271       39.59595       30.91493
C         44.33445       38.28925       30.58257
O         46.42770       39.34579       31.02432
H         46.31806       40.65065       28.54087
H         43.55497       40.67404       29.78250
H         44.66475       39.90404       31.91666
H         46.94693       40.06355       30.58828
H         44.58295       37.53279       31.35603
H         43.23378       38.44763       30.59732
H         44.64017       37.91408       29.58527
N         44.12086       42.62736       31.32761
C         44.43762       43.72332       32.23208
C         45.45204       43.25133       33.26020
O         45.22391       42.25206       33.92289
C         43.13060       44.21519       32.92838
C         42.14939       44.85592       31.90533
C         43.39050       45.18036       34.10255
C         42.71525       46.05795       31.13359
H         43.17652       42.21725       31.37589
H         44.87670       44.57428       31.67779
H         42.62284       43.33367       33.38269
H         41.23708       45.18141       32.44831
H         41.83407       44.09954       31.15606
H         43.92348       46.09663       33.78291
H         42.42359       45.46045       34.57407
H         43.99119       44.68202       34.89251
H         43.08561       46.85225       31.81261
H         43.53298       45.74150       30.46266
H         41.92965       46.49196       30.48332
N         46.56333       44.00550       33.48949
C         47.52870       43.73363       34.54964
C         47.36628       44.79074       35.60483
O         46.55149       45.67820       35.44145
C         48.96814       43.76272       34.01083
C         49.10819       42.80420       32.90194
O         48.37652       43.08155       31.80696
O         49.82991       41.82321       32.99351
H         46.69049       44.86766       32.95092
H         47.33291       42.74434       35.01433
H         49.70145       43.53818       34.81286
H         49.20951       44.76355       33.58423
N         48.09148       44.72894       36.75343
C         47.93482       45.72469       37.80041
C         48.46301       47.09302       37.34732
O         47.72065       48.05236       37.51479
C         48.54931       45.21794       39.11754
C         48.15298       46.06481       40.30201
C         46.81131       46.11638       40.73297
C         49.12630       46.78568       41.00754
C         46.45960       46.87327       41.85506
C         48.76859       47.54637       42.12391
C         47.43817       47.58751       42.54994
H         48.72174       43.92941       36.90216
H         46.84496       45.80786       38.01153
H         49.64578       45.14593       39.03121
H         48.17490       44.18968       39.32129
H         46.03894       45.55996       40.21510
H         50.16108       46.75871       40.69183
H         45.43009       46.90188       42.19053
H         49.52591       48.09974       42.66194
H         47.16628       48.17029       43.42031
N         49.68104       47.29851       36.73083
C         50.13496       48.59942       36.23022
C         49.23653       49.22703       35.15518
O         49.50167       50.35328       34.75958
C         51.49990       48.30841       35.58370
C         51.96873       47.07543       36.31730
C         50.68076       46.27800       36.49196
H         50.22991       49.27071       37.11336
H         51.34812       47.98502       34.52854
H         52.21142       49.16423       35.59007
H         52.78908       46.51609       35.81576
H         52.31293       47.39878       37.32381
H         50.39948       45.72490       35.57391
H         50.84160       45.58815       37.33633
N         48.18518       48.53989       34.61691
C         47.28556       49.04850       33.58440
C         45.88516       49.26573       34.15156
O         45.11744       50.00587       33.55297
C         47.18772       48.00840       32.44654
C         48.55822       47.64603       31.84661
C         48.50467       46.45078       30.93851
O         49.52495       46.06478       30.39663
O         47.36912       45.75603       30.76455
H         48.01885       47.58014       34.92760
H         47.65840       50.02231       33.19521
H         46.50550       48.36205       31.64060
H         46.73696       47.09638       32.88959
H         49.27216       47.37672       32.65178
H         48.95303       48.52262       31.29322
N         45.47448       48.63672       35.29050
C         44.15980       48.78684       35.86450
H         43.38929       48.39511       35.16866
H         44.10690       48.20117       36.80996
H         43.96972       49.85277       36.10006
H         46.10184       48.00382       35.78445
Ca        48.78005       43.27784       29.64370
O         46.74514       43.00507       27.17437
H         47.14173       43.14553       26.27809
H         45.81173       43.31385       27.07449
O         45.61421       45.39273       28.52197
H         45.47626       45.88280       29.36573
H         44.88603       45.72162       27.94060

Ca 1.0



