%chk=holoCaM-CaMKII.loop3.water2.frame143.chk
%nprocshared=20
%mem=10GB
%nosave
#b3lyp/svp scf=(tight,noincore,xqc) Test 
#IOP(5/87=12) Density=Current Pop=(MK,readradii) iop(6/33=2) iop(6/42=6)

holoCaM-CaMKII.loop3.water2.frame143 

   0  1 
C         15.36141       18.26588       76.82203
C         16.14185       19.06929       77.81071
O         15.55253       19.86089       78.52941
H         14.28421       18.53336       76.86161
H         15.75103       18.45843       75.80205
H         15.47170       17.18740       77.06432
N         17.48440       18.87596       77.92457
C         18.30896       19.54391       78.91912
C         18.46209       21.03088       78.62003
O         19.40438       21.40933       77.93614
C         19.68469       18.84181       79.00731
C         20.41244       19.21082       80.26056
O         21.42699       18.61115       80.56366
O         19.85831       20.09139       81.11510
H         17.91694       18.15502       77.32639
H         17.81318       19.39805       79.90381
H         20.30127       19.02216       78.09999
H         19.51106       17.74941       79.07642
N         17.54999       21.93437       79.07664
C         17.64099       23.35770       78.77313
C         18.82391       23.96530       79.49969
O         19.70311       24.51594       78.85135
C         16.33249       24.10096       79.13650
C         15.07078       23.55144       78.43066
C         15.17478       23.54457       76.89634
C         13.87194       23.05557       76.25025
N         13.99588       23.01931       74.79276
H         16.75680       21.59663       79.63804
H         17.79065       23.49011       77.68002
H         16.45072       25.17142       78.85726
H         16.15480       24.05289       80.23237
H         14.21167       24.18941       78.73313
H         14.85796       22.51985       78.78019
H         15.98745       22.85796       76.57923
H         15.40129       24.57092       76.53448
H         13.03871       23.73666       76.53252
H         13.63244       22.03329       76.62010
H         14.21297       23.97401       74.42479
H         14.75349       22.35402       74.51333
H         13.09273       22.69365       74.37883
N         18.91477       23.88153       80.85875
C         20.03034       24.44153       81.62343
C         21.39265       23.84885       81.25219
O         22.39480       24.42357       81.65444
C         19.79062       24.32434       83.14795
C         19.68175       22.90565       83.63638
O         18.76128       22.19615       83.26866
O         20.57241       22.42745       84.52415
H         18.13658       23.42831       81.35575
H         20.06920       25.52660       81.37973
H         18.85466       24.85704       83.42179
H         20.62993       24.82090       83.68114
N         21.51740       22.72833       80.48341
C         22.79003       22.22255       79.99408
C         23.77804       21.87481       81.08626
O         24.84379       22.47519       81.09889
H         20.67452       22.22936       80.17812
H         23.23704       22.99786       79.33192
H         22.61255       21.31835       79.37291
N         23.51691       20.90695       82.01693
C         24.48239       20.53450       83.06007
C         24.92580       19.06831       82.99068
O         25.82341       18.70641       83.73884
C         23.92913       20.89267       84.45678
C         22.82039       19.98204       84.92304
N         22.92108       19.30186       86.08820
O         21.81686       19.86122       84.24878
H         22.60205       20.43821       81.98269
H         25.40278       21.14297       82.92930
H         23.56011       21.94181       84.43373
H         24.75863       20.84788       85.19385
H         23.75293       19.39529       86.68754
H         22.15502       18.68720       86.40047
N         24.34535       18.16797       82.14237
C         24.75001       16.77335       82.01124
C         23.68007       15.78795       82.46808
O         23.85769       14.60051       82.24453
H         23.57599       18.47041       81.53996
H         25.67538       16.55332       82.58568
H         24.97552       16.59582       80.93739
N         22.58595       16.19480       83.17484
C         21.56844       15.29779       83.72850
C         20.18682       15.79902       83.39061
O         19.93970       16.97628       83.57588
C         21.64881       15.33852       85.26460
C         22.83242       14.60028       85.81507
C         22.82057       13.19536       85.85612
C         23.92809       15.29861       86.33812
C         23.88700       12.49983       86.43036
C         25.00145       14.60080       86.89689
C         24.98008       13.19855       86.95328
O         25.99819       12.51515       87.51236
H         22.49695       17.19383       83.40778
H         21.68587       14.24316       83.39338
H         20.74595       14.87236       85.72283
H         21.65350       16.40118       85.59105
H         21.97247       12.64088       85.47064
H         23.95070       16.38078       86.31052
H         23.85800       11.41809       86.47824
H         25.84307       15.15195       87.29474
H         26.76528       12.96198       87.89740
N         19.19217       14.93356       83.04446
C         17.79417       15.35763       82.95434
C         16.95086       14.66429       84.00993
O         17.37457       13.67947       84.59493
C         17.20262       15.12944       81.53510
C         17.37149       13.65766       81.07113
C         17.84325       16.11721       80.55314
C         16.65672       13.33886       79.75864
H         19.41774       13.93454       82.93502
H         17.70977       16.43810       83.18829
H         16.11666       15.36995       81.57340
H         16.95063       12.97923       81.84377
H         18.44929       13.41787       80.94569
H         18.93339       15.92819       80.46843
H         17.37760       16.05388       79.54972
H         17.68439       17.15550       80.91350
H         16.81238       12.26724       79.51114
H         15.56716       13.52564       79.86104
H         17.06001       13.93757       78.91788
N         15.71649       15.16882       84.29544
C         14.76106       14.54201       85.19947
C         13.49133       14.23026       84.42343
O         13.41325       14.54782       83.24790
C         14.47739       15.47226       86.39560
O         13.92560       16.68575       85.96396
H         15.42462       16.03766       83.82691
H         15.16641       13.58878       85.60037
H         15.43077       15.66911       86.93512
H         13.77230       14.97119       87.09648
H         13.68715       17.19018       86.78550
N         12.44450       13.60230       85.02466
C         11.18455       13.34009       84.33381
C         10.53056       14.64161       83.90539
O         10.13068       14.75830       82.75500
C         10.23618       12.55870       85.24463
H         12.54380       13.31415       86.00899
H         11.37059       12.70159       83.44064
H         10.00013       13.13420       86.16399
H          9.29273       12.33407       84.70182
H         10.70830       11.59460       85.53184
N         10.44215       15.68372       84.78016
C          9.86191       16.98415       84.45596
C         10.46865       17.57586       83.19846
O          9.72109       17.96198       82.31082
C         10.07008       17.95437       85.62626
H         10.84415       15.55239       85.72217
H          8.76595       16.86942       84.30052
H          9.59374       17.55184       86.54524
H         11.15373       18.10442       85.82519
H          9.61072       18.93963       85.39655
N         11.81974       17.65018       83.04344
C         12.45653       18.20725       81.85182
C         11.97776       17.48906       80.60286
O         11.48147       18.14727       79.69856
C         13.99531       18.14142       81.95243
C         14.52665       18.98882       83.12285
C         16.02257       18.99883       83.15679
O         16.67468       18.53917       84.24034
O         16.65395       19.45010       82.21590
H         12.40850       17.26989       83.79781
H         12.18015       19.28201       81.75996
H         14.42252       18.54575       81.00764
H         14.32902       17.08727       82.05676
H         14.15579       18.59382       84.08973
H         14.17487       20.03698       83.01773
N         12.05274       16.13548       80.49896
C         11.55502       15.42370       79.34256
H         10.47644       15.64879       79.19450
H         12.12482       15.72293       78.43823
H         11.66664       14.32906       79.49463
H         12.44321       15.58864       81.27566
Ca        19.40864       19.56141       83.24538
O         19.18502       18.12045       86.12845
H         19.58391       18.73735       86.79162
H         18.24612       18.01114       86.42231
O         17.77800       20.97998       85.80530
H         17.52633       21.93443       85.88158
H         17.03502       20.49143       86.24017

Ca 1.0



