%chk=holoCaM-CaMKII.loop2.water1.frame111.chk
%nprocshared=20
%mem=10GB
%nosave
#b3lyp/svp scf=(tight,noincore,xqc) Test 
#IOP(5/87=12) Density=Current Pop=(MK,readradii) iop(6/33=2) iop(6/42=6)

holoCaM-CaMKII.loop2.water1.frame111 

   -2  1 
C         11.97774       43.77237       64.79807
C         11.62277       43.52006       63.36638
O         12.11483       44.23625       62.50482
H         12.68676       44.62585       64.87684
H         11.06404       44.00411       65.37992
H         12.47176       42.87045       65.21753
N         10.80936       42.47678       63.02557
C         10.56726       42.13733       61.63089
C          9.67754       43.18484       60.98051
O          8.49002       43.21366       61.27498
C          9.99324       40.70030       61.49136
C         10.18747       40.11709       60.11115
O         10.83283       40.83576       59.17460
O          9.89404       38.95412       59.89365
H         10.45390       41.86060       63.77284
H         11.56628       42.12891       61.16363
H          8.92974       40.66132       61.81294
H         10.57561       40.03610       62.16814
N         10.20026       44.13188       60.14565
C          9.38837       45.21054       59.58640
C          8.58750       44.77316       58.37216
O          7.76382       45.55539       57.91743
C         10.26815       46.40445       59.20597
H         11.21947       44.14504       59.99315
H          8.68964       45.56916       60.37628
H         10.82214       46.76242       60.09953
H         10.99530       46.11819       58.41686
H          9.64025       47.24242       58.83189
N          8.77403       43.55626       57.78376
C          7.99545       43.09122       56.64179
C          7.09791       41.91865       57.03044
O          6.33347       41.47114       56.18675
C          8.92345       42.81633       55.43670
C         10.02406       41.83664       55.71929
O          9.73330       40.57484       56.06330
O         11.19165       42.17886       55.61885
H          9.48512       42.91451       58.16150
H          7.29124       43.88208       56.30311
H          9.38925       43.78110       55.13559
H          8.32445       42.45018       54.57532
N          7.06181       41.43119       58.30939
C          6.07560       40.47116       58.78047
C          6.18161       39.07158       58.21270
O          5.35331       38.25353       58.58810
H          7.68374       41.82230       59.02909
H          5.06208       40.87699       58.57107
H          6.17718       40.37799       59.88434
N          7.14724       38.69755       57.32497
C          7.22386       37.34660       56.76958
C          7.64929       36.28019       57.78906
O          7.70406       35.11735       57.41399
C          8.10261       37.32888       55.49774
C          9.56507       37.63892       55.68379
N         10.36872       37.69853       54.59717
O         10.02937       37.84981       56.79362
H          7.81390       39.40120       56.99241
H          6.20676       37.07888       56.40346
H          7.68339       38.07972       54.79078
H          8.02037       36.33158       55.01477
H          9.98780       37.53210       53.65385
H         11.36794       37.92420       54.69088
N          7.90883       36.57918       59.09759
C          8.14821       35.56905       60.11829
C          9.57142       35.05289       60.21084
O          9.81335       34.25276       61.10344
H          7.80547       37.54465       59.43130
H          7.42180       34.73553       60.00215
H          7.94307       36.03637       61.10650
N         10.57329       35.47741       59.38817
C         11.97602       35.08497       59.56260
C         12.82044       36.32351       59.85889
O         12.26739       37.41401       59.91087
C         12.47848       34.28404       58.33299
C         11.74187       32.94408       58.18107
O         12.39447       35.03449       57.14945
H         10.35274       36.14072       58.63360
H         12.09496       34.42145       60.44699
H         13.54617       34.02217       58.48822
H         11.45403       35.02370       56.83239
H         12.16378       32.38179       57.32082
H         11.86986       32.33045       59.09804
H         10.65704       33.10317       58.00466
N         14.16698       36.23484       60.08698
C         14.99108       37.39426       60.43194
C         15.93579       37.69078       59.27637
O         16.69180       36.80928       58.88925
C         15.82728       37.16187       61.73587
C         15.01312       36.53041       62.89121
C         16.44044       38.50547       62.18795
C         15.88174       36.21200       64.11902
H         14.63120       35.31756       60.01057
H         14.34054       38.27819       60.61132
H         16.64441       36.44473       61.49614
H         14.59216       35.56380       62.54253
H         14.17347       37.19315       63.19063
H         17.14474       38.38727       63.03318
H         17.01996       38.96002       61.37486
H         15.63978       39.21933       62.48262
H         16.27479       37.13208       64.59717
H         15.27857       35.68002       64.88248
H         16.73721       35.56248       63.83067
N         15.97976       38.93061       58.70912
C         16.96481       39.30930       57.69793
C         18.21988       39.83216       58.38071
O         18.22755       39.92022       59.59450
C         16.36378       40.36664       56.74943
C         15.14305       39.85045       56.03071
O         15.24106       38.87517       55.30470
O         13.96407       40.50793       56.10099
H         15.39426       39.67304       59.11315
H         17.26002       38.41483       57.10494
H         17.11926       40.64631       55.98477
H         16.10028       41.28049       57.32709
N         19.34921       40.15433       57.68828
C         20.56164       40.59222       58.37949
C         20.35251       41.92062       59.11148
O         20.62183       41.94347       60.30391
C         21.79525       40.61300       57.44497
C         23.06428       40.98088       58.18913
C         23.80460       42.11567       57.81187
C         23.52324       40.19498       59.26450
C         24.97506       42.45743       58.49784
C         24.69129       40.54350       59.94919
C         25.41689       41.67329       59.56624
H         19.36283       40.03351       56.66400
H         20.80173       39.81678       59.14131
H         21.64746       41.30134       56.59739
H         21.92975       39.60009       57.00788
H         23.47778       42.73748       56.98802
H         22.98123       39.31249       59.57767
H         25.54027       43.33151       58.20140
H         25.03458       39.93606       60.77701
H         26.32205       41.94001       60.09676
N         19.87673       43.06109       58.51028
C         19.67107       44.32899       59.20979
C         18.85250       44.17976       60.47490
O         19.23631       44.70071       61.51253
C         18.89110       45.18153       58.19758
C         19.42940       44.67266       56.88581
C         19.45330       43.16848       57.12767
H         20.66210       44.78784       59.42454
H         17.81084       44.90784       58.20734
H         18.97328       46.27714       58.36272
H         18.86200       44.98629       55.98447
H         20.48151       45.02857       56.79325
H         18.44253       42.71340       57.03128
H         20.14235       42.73019       56.39131
N         17.71273       43.43845       60.44532
C         16.83853       43.21927       61.59141
C         17.62535       42.61162       62.73616
O         17.63844       43.18102       63.81841
C         15.65962       42.30909       61.18270
C         14.78873       42.98055       60.10198
C         13.67630       42.10931       59.62538
O         12.92846       42.53189       58.75912
O         13.48762       40.87410       60.13207
H         17.48126       42.97856       59.55262
H         16.41440       44.19158       61.92976
H         15.02275       42.09829       62.07043
H         16.05571       41.34376       60.79837
H         15.38535       43.23176       59.20338
H         14.35547       43.91902       60.50868
N         18.35085       41.47878       62.55005
C         19.17748       40.89961       63.58281
H         19.94270       41.63686       63.90739
H         18.55229       40.59717       64.44757
H         19.70107       40.00406       63.18382
H         18.34656       41.03050       61.63084
Ca        12.24700       40.09895       57.55003
O         13.15577       37.53307       56.61505
H         13.92697       37.26495       57.17385
H         13.33434       37.11891       55.73359

Ca 1.0



