%chk=holoCaM.loop3.water3.frame231.chk
%nprocshared=20
%mem=10GB
%nosave
#b3lyp/svp scf=(tight,noincore,xqc) Test 
#IOP(5/87=12) Density=Current Pop=(MK,readradii) iop(6/33=2) iop(6/42=6)

holoCaM.loop3.water3.frame231 

   0  1 
C         50.47776       72.35530       34.81365
C         49.80835       73.45722       34.05505
O         49.90621       73.49696       32.83635
H         51.21540       72.78879       35.52023
H         49.71445       71.78449       35.38409
H         50.99968       71.66304       34.12012
N         49.07498       74.38581       34.72354
C         48.36283       75.45064       34.03811
C         49.34765       76.43908       33.44022
O         50.23205       76.89142       34.15512
C         47.42100       76.17511       35.00489
C         46.38080       76.95890       34.26678
O         46.27590       76.92066       32.92300
O         45.53735       77.55595       34.90487
H         48.98413       74.29624       35.74834
H         47.72359       74.97173       33.26107
H         47.99023       76.82017       35.70968
H         46.85532       75.42683       35.60078
N         49.24226       76.83188       32.14120
C         50.22747       77.67079       31.47145
C         49.73973       79.09839       31.22654
O         50.58216       79.93296       30.92508
C         50.69025       76.91388       30.21434
C         51.81173       77.59113       29.42550
C         52.30277       76.64977       28.31488
C         53.35078       77.28874       27.39278
N         54.55405       77.70762       28.11292
H         48.44896       76.48743       31.59466
H         51.10755       77.79273       32.14093
H         49.82163       76.74528       29.53895
H         51.05729       75.92056       30.55880
H         52.65057       77.81969       30.11605
H         51.43210       78.53304       28.97601
H         51.43865       76.34969       27.68186
H         52.72765       75.73009       28.77591
H         52.90463       78.16317       26.87034
H         53.63231       76.53517       26.62383
H         54.33562       78.49138       28.76831
H         54.96279       76.90150       28.63885
H         55.25682       78.05340       27.42069
N         48.44390       79.48733       31.42758
C         48.04587       80.89641       31.50512
C         47.46735       81.21997       32.88892
O         47.07331       82.35805       33.10319
C         47.13313       81.32302       30.32909
C         45.77567       80.69837       30.26870
O         45.37982       79.82506       31.19925
O         45.00945       81.00527       29.36972
H         47.72533       78.77387       31.61189
H         48.93779       81.55170       31.39596
H         47.66261       81.10435       29.37672
H         46.98213       82.42412       30.38647
N         47.46322       80.29654       33.90415
C         47.07666       80.60899       35.27122
C         45.59652       80.84302       35.50075
O         45.26494       81.23472       36.61139
H         47.85808       79.35939       33.75414
H         47.64808       81.50774       35.59254
H         47.37917       79.77234       35.93848
N         44.64334       80.64172       34.54172
C         43.24059       81.00005       34.76287
C         42.52007       80.17420       35.84644
O         41.38622       80.51159       36.15165
C         42.44904       81.04395       33.42024
C         42.09023       79.71664       32.71169
N         40.64519       79.54516       32.60803
O         42.59429       78.62350       33.38506
H         44.93307       80.31309       33.61177
H         43.25258       82.05688       35.11165
H         43.03216       81.65216       32.69480
H         41.51037       81.61144       33.59544
H         40.25259       80.29225       31.99552
H         40.45109       78.62276       32.15360
N         43.09157       79.08806       36.45636
C         42.43949       78.28159       37.49062
C         42.08119       76.87531       37.01429
O         41.54281       76.10803       37.80155
H         44.03104       78.79527       36.17986
H         41.49479       78.75775       37.82695
H         43.11708       78.22559       38.36998
N         42.27790       76.50053       35.72294
C         41.82820       75.26459       35.09533
C         42.96205       74.62919       34.31373
O         43.66749       75.33460       33.60438
C         40.71501       75.61445       34.08764
C         39.39505       75.90994       34.75267
C         38.95244       77.22616       34.95806
C         38.56786       74.83951       35.13384
C         37.69879       77.46439       35.53539
C         37.31283       75.07882       35.69660
C         36.87218       76.39362       35.89808
O         35.65776       76.63796       36.43102
H         42.71739       77.17302       35.09637
H         41.41569       74.53221       35.82580
H         40.53324       74.76240       33.39575
H         41.03939       76.46123       33.44488
H         39.57423       78.06480       34.67519
H         38.88733       73.81696       34.97244
H         37.36399       78.48202       35.69186
H         36.68177       74.24120       35.96707
H         35.05048       75.92412       36.67464
N         43.11098       73.27838       34.29005
C         44.09734       72.58864       33.46446
C         43.36068       71.80912       32.38996
O         42.44734       71.06249       32.72578
C         44.96031       71.61932       34.31825
C         45.59827       72.34142       35.52901
C         46.05070       70.97556       33.42931
C         46.27413       71.37268       36.50279
H         42.45341       72.70053       34.83932
H         44.79008       73.31584       32.98343
H         44.28826       70.82437       34.71244
H         44.80492       72.85767       36.11002
H         46.32734       73.10405       35.18218
H         45.60108       70.43768       32.57176
H         46.73613       71.75652       33.03067
H         46.64767       70.22626       33.98182
H         45.53614       70.62236       36.86176
H         47.13044       70.84678       36.03739
H         46.65838       71.93426       37.37877
N         43.74672       71.87625       31.08532
C         43.12339       71.09239       30.02622
C         44.06141       69.99825       29.55707
O         45.19887       69.94775       30.00254
C         42.70810       72.01095       28.86181
O         43.82679       72.63005       28.28201
H         44.56807       72.44893       30.84274
H         42.21181       70.58492       30.40958
H         41.97622       72.77387       29.21421
H         42.19225       71.42742       28.07138
H         43.94302       73.50415       28.73672
N         43.63319       69.05491       28.67690
C         44.48213       67.98379       28.16324
C         45.62081       68.55174       27.33983
O         46.75209       68.12361       27.51058
C         43.66118       67.02015       27.30417
H         42.65041       69.09900       28.36105
H         44.88963       67.38285       29.00855
H         44.30783       66.19211       26.94097
H         42.84756       66.57691       27.91823
H         43.21391       67.54222       26.43259
N         45.38466       69.56204       26.45432
C         46.42323       70.20568       25.65490
C         47.56479       70.69084       26.52768
O         48.70833       70.35116       26.25621
C         45.82217       71.39061       24.88466
H         44.41957       69.91899       26.37829
H         46.82102       69.47976       24.91204
H         45.00463       71.03806       24.22039
H         45.40300       72.14621       25.58503
H         46.59823       71.87871       24.25786
N         47.31487       71.46309       27.61869
C         48.35304       71.95004       28.52459
C         49.14388       70.78576       29.10623
O         50.36519       70.82632       29.05794
C         47.74042       72.85676       29.62214
C         47.09657       74.10562       28.97561
C         46.51403       75.07278       29.96196
O         46.84171       76.24656       29.92210
O         45.56384       74.68358       30.82913
H         46.32981       71.68452       27.82360
H         49.06707       72.58990       27.95860
H         48.54815       73.19079       30.30998
H         46.98837       72.29027       30.21482
H         46.27639       73.80622       28.29902
H         47.86073       74.63608       28.36537
N         48.51351       69.67813       29.58736
C         49.20663       68.49526       30.06004
H         50.30957       68.61883       30.05945
H         48.87491       68.25728       31.09134
H         48.95555       67.63644       29.39987
H         47.49035       69.64054       29.56812
Ca        44.30148       77.69724       32.26306
O         44.06416       76.40987       28.44768
H         44.62963       75.92889       27.79280
H         43.14016       76.13055       28.22913
O         42.34343       78.54935       29.78121
H         43.21227       78.96593       29.55702
H         41.66588       79.19370       29.45697
O         41.91419       75.58075       30.83916
H         41.36596       74.78652       31.05849
H         41.37926       76.06760       30.16342

Ca 1.0



