%chk=holoCaM-CaMKII.loop2.water2.frame245.chk
%nprocshared=20
%mem=10GB
%nosave
#b3lyp/svp scf=(tight,noincore,xqc) Test 
#IOP(5/87=12) Density=Current Pop=(MK,readradii) iop(6/33=2) iop(6/42=6)

holoCaM-CaMKII.loop2.water2.frame245 

   -2  1 
C         96.92085      130.92632       58.56079
C         98.04383      131.86468       58.21898
O         99.06629      131.81290       58.87434
H         96.06058      131.05131       57.86964
H         97.28422      129.87937       58.45963
H         96.57854      131.09193       59.60117
N         97.93594      132.71255       57.16184
C         99.04304      133.49522       56.61017
C         99.55102      134.60680       57.53690
O         98.73777      135.29171       58.14006
C         98.58944      134.09902       55.26476
C         99.71728      134.50039       54.36166
O         99.46185      135.00586       53.28138
O        100.99614      134.21756       54.67364
H         97.04062      132.70901       56.64943
H         99.85164      132.77979       56.38071
H         97.90884      134.95605       55.45826
H         98.03178      133.33194       54.68582
N        100.88955      134.88926       57.62205
C        101.47117      135.96275       58.42974
C        102.26785      136.98009       57.59871
O        102.84387      137.87513       58.20401
C        102.41291      135.33584       59.46776
H        101.54544      134.31788       57.07875
H        100.67945      136.51559       58.98029
H        103.25159      134.80668       58.96539
H        102.84248      136.11833       60.13128
H        101.86069      134.61271       60.10287
N        102.35765      136.92681       56.23271
C        103.22088      137.83574       55.46205
C        103.01510      137.85385       53.93281
O        103.71486      138.62698       53.29137
C        104.71247      137.52221       55.76629
C        105.13617      136.11222       55.42319
O        106.41691      135.74541       55.61513
O        104.34010      135.29296       54.99144
H        101.81608      136.21014       55.75497
H        103.00060      138.87850       55.78318
H        104.92531      137.68199       56.84218
H        105.35730      138.23134       55.20270
N        102.09129      137.10063       53.26490
C        101.89070      137.18899       51.82391
C        103.04148      136.66374       50.97931
O        102.95482      136.79789       49.76671
H        101.45166      136.49155       53.77102
H        101.69168      138.25062       51.56160
H        100.98926      136.60135       51.54264
N        104.13678      136.04758       51.51664
C        105.26536      135.57214       50.71120
C        104.93923      134.40665       49.75964
O        105.83862      133.98248       49.04672
C        106.46708      135.20161       51.61527
C        106.26209      134.02724       52.54050
N        107.30607      133.56716       53.26543
O        105.17381      133.48221       52.63670
H        104.19922      135.95495       52.53729
H        105.61434      136.42714       50.09018
H        106.75333      136.08363       52.22943
H        107.32782      134.96250       50.95417
H        108.23211      134.01288       53.19579
H        107.19909      132.75082       53.88006
N        103.69594      133.85274       49.66644
C        103.34157      132.81504       48.70813
C        103.56073      131.39506       49.19914
O        103.15498      130.48816       48.48645
H        102.92599      134.24836       50.21146
H        103.84346      132.99088       47.73119
H        102.24953      132.90167       48.51969
N        104.17475      131.10810       50.38382
C        104.32456      129.74940       50.90800
C        103.73937      129.70252       52.33794
O        104.52986      130.49788       53.16941
C        105.81965      129.30258       50.86849
C        106.37007      129.26157       49.44175
O        106.64476      130.09867       51.68532
H        104.55428      131.88055       50.94065
H        103.74560      129.03104       50.28726
H        105.89237      128.26294       51.24499
H        106.64945      131.01977       51.31826
H        106.36598      130.27463       48.98846
H        107.41354      128.88147       49.45882
H        105.75485      128.57940       48.81761
N        103.56580      128.32778       52.85806
C        103.16758      128.24687       54.27990
C        104.41990      128.24894       55.15913
O        105.19307      127.30357       55.07361
C        102.34585      126.93464       54.52688
C        101.13510      126.83028       53.56233
C        101.87942      126.84020       55.99475
C        100.38487      125.49554       53.66717
H        104.36608      127.68969       52.65673
H        102.50701      129.10806       54.52551
H        103.01271      126.06837       54.31616
H        101.50047      126.90118       52.51605
H        100.42533      127.66676       53.74111
H        102.74121      126.86941       56.67962
H        101.18976      127.67366       56.24662
H        101.37464      125.87628       56.20327
H         99.58259      125.45788       52.90109
H        101.08006      124.64662       53.48996
H         99.89978      125.36971       54.65586
N        104.69536      129.27076       56.02240
C        105.85388      129.23890       56.91780
C        105.60500      128.22711       58.02178
O        104.51571      127.68305       58.08335
C        106.13304      130.62109       57.54652
C        106.49193      131.66071       56.52167
O        105.68926      131.99282       55.66735
O        107.70274      132.24953       56.55611
H        104.06253      130.07637       56.05321
H        106.75586      128.94828       56.33354
H        106.99770      130.53405       58.23745
H        105.25575      130.96115       58.13470
N        106.56173      127.89950       58.93141
C        106.30626      126.91269       59.97369
C        105.25385      127.39176       60.98079
O        104.32802      126.63252       61.22132
C        107.59901      126.46943       60.68877
C        107.33281      125.26823       61.56973
C        107.47528      125.35504       62.96399
C        106.93010      124.04534       60.99708
C        107.21215      124.24143       63.76917
C        106.67095      122.93619       61.80486
C        106.81037      123.03402       63.19038
H        107.50052      128.31957       58.84722
H        105.92523      125.99976       59.46319
H        108.02216      127.30013       61.28118
H        108.36395      126.17730       59.93716
H        107.77969      126.28445       63.42815
H        106.81790      123.94639       59.92449
H        107.31776      124.31459       64.84329
H        106.36128      122.00124       61.35505
H        106.60719      122.17363       63.81448
N        105.30555      128.61547       61.61209
C        104.30114      129.09045       62.56712
C        102.89601      128.96477       62.02571
O        102.00031      128.48690       62.70806
C        104.62527      130.58934       62.72009
C        106.11602      130.61664       62.51145
C        106.28250      129.65282       61.34398
H        104.42676      128.55516       63.53373
H        104.20082      131.17330       61.87001
H        104.25360      131.04957       63.66024
H        106.54729      131.62601       62.33723
H        106.58999      130.16394       63.40988
H        106.01387      130.13898       60.38226
H        107.33166      129.31500       61.32087
N        102.67043      129.38066       60.75544
C        101.39392      129.36881       60.06490
C        100.84860      127.95247       60.02680
O         99.72766      127.73239       60.46317
C        101.60615      129.95630       58.65129
C        102.10034      131.42871       58.72083
C        102.49204      131.94519       57.37773
O        103.49425      132.63203       57.26559
O        101.86547      131.51948       56.27083
H        103.49674      129.70308       60.23222
H        100.66567      130.02168       60.59689
H        100.65816      129.91354       58.07242
H        102.35942      129.33968       58.11362
H        102.99370      131.54821       59.36478
H        101.35413      132.09868       59.17937
N        101.62311      126.92788       59.58096
C        101.19692      125.54743       59.61437
H        100.30755      125.40369       58.96803
H        102.01914      124.89366       59.24988
H        100.95820      125.25301       60.65917
H        102.57054      127.12712       59.24956
Ca       103.10149      131.70231       54.42568
O        100.28663      131.14162       53.72998
H         99.35017      131.37327       53.51113
H        100.21750      130.50344       54.48319
O        101.62577      133.10115       52.01849
H        101.92519      134.01037       52.27266
H        100.96890      133.25033       51.29278

Ca 1.0



