%chk=holoCaM-CaMKII.loop2.water2.frame237.chk
%nprocshared=20
%mem=10GB
%nosave
#b3lyp/svp scf=(tight,noincore,xqc) Test 
#IOP(5/87=12) Density=Current Pop=(MK,readradii) iop(6/33=2) iop(6/42=6)

holoCaM-CaMKII.loop2.water2.frame237 

   -2  1 
C         78.36031       33.13451       46.73094
C         79.11365       33.28988       48.02398
O         78.63324       32.83966       49.05340
H         77.37602       33.64055       46.79795
H         78.92250       33.57243       45.87740
H         78.20587       32.05519       46.51893
N         80.32878       33.89955       48.03328
C         81.17186       34.01589       49.21704
C         80.55859       34.88968       50.30203
O         80.22968       36.03554       50.02786
C         82.53861       34.59280       48.80813
C         83.45269       34.66698       49.98746
O         83.94652       35.73309       50.31742
O         83.69458       33.55712       50.70825
H         80.69830       34.24923       47.13480
H         81.35424       32.99435       49.61697
H         82.41660       35.60284       48.35714
H         83.00185       33.92532       48.05082
N         80.45560       34.42044       51.58335
C         79.96625       35.21973       52.70297
C         80.99997       35.40277       53.82480
O         80.69477       36.14803       54.74593
C         78.70545       34.55527       53.26863
H         80.74597       33.45260       51.77409
H         79.68993       36.23641       52.34927
H         77.93539       34.45950       52.47359
H         78.94295       33.53932       53.65418
H         78.27737       35.15908       54.09707
N         82.20187       34.74335       53.86202
C         83.11754       34.81975       55.01270
C         84.61218       34.87799       54.64324
O         85.42180       34.96395       55.55651
C         82.80974       33.66057       55.98103
C         82.78439       32.34797       55.27501
O         83.86141       31.90926       54.61337
O         81.75407       31.69321       55.24400
H         82.40138       34.04167       53.13720
H         82.92630       35.74906       55.59299
H         81.80093       33.82814       56.41980
H         83.54027       33.63770       56.81763
N         85.05807       34.90067       53.35470
C         86.45297       35.12213       52.97780
C         87.44189       33.99662       53.25964
O         88.61710       34.21150       52.99747
H         84.37132       34.88421       52.60021
H         86.80515       36.04818       53.48180
H         86.49713       35.30601       51.88194
N         87.07855       32.78354       53.76646
C         88.04382       31.71448       54.06602
C         88.72423       31.08312       52.83205
O         89.53357       30.18498       53.02221
C         87.37729       30.62200       54.93896
C         86.29759       29.83168       54.25224
N         85.64211       28.85797       54.92277
O         86.00930       30.06134       53.09061
H         86.09150       32.63526       54.00184
H         88.84049       32.15159       54.70815
H         86.94207       31.10596       55.84073
H         88.15484       29.90542       55.28127
H         85.86393       28.65443       55.90768
H         84.90981       28.30608       54.45530
N         88.47808       31.50060       51.55470
C         89.18569       30.99752       50.38246
C         88.58423       29.75862       49.73225
O         89.10614       29.36001       48.70291
H         87.86250       32.30451       51.40600
H         90.26170       30.84172       50.61887
H         89.14715       31.78946       49.60326
N         87.50305       29.10191       50.24706
C         86.88919       27.92621       49.61675
C         85.38995       28.14390       49.40347
O         84.86788       29.17281       49.79641
C         87.12330       26.66906       50.49841
C         88.61440       26.37739       50.71747
O         86.44333       26.76253       51.72700
H         87.10752       29.43069       51.12875
H         87.35118       27.73090       48.62487
H         86.71843       25.78210       49.96687
H         86.90377       27.44039       52.28476
H         88.73088       25.43827       51.29880
H         89.12829       26.25380       49.74034
H         89.10232       27.20232       51.27822
N         84.62610       27.15880       48.83941
C         83.16764       27.21468       48.75304
C         82.63693       26.22530       49.76997
O         83.08645       25.08886       49.78894
C         82.64264       26.85632       47.33184
C         83.28796       27.74918       46.24565
C         81.09911       26.98981       47.30355
C         82.90008       27.33036       44.82269
H         85.08295       26.28614       48.54153
H         82.79369       28.23264       49.00289
H         82.91867       25.80025       47.11540
H         84.39254       27.65738       46.31431
H         83.01577       28.81495       46.40805
H         80.79548       28.04143       47.50183
H         80.67083       26.67271       46.33370
H         80.62529       26.34281       48.06716
H         83.17359       26.26722       44.64859
H         81.81598       27.46219       44.63350
H         83.44304       27.95940       44.08774
N         81.65456       26.59175       50.63613
C         81.15887       25.70865       51.68528
C         79.85748       25.08297       51.25235
O         79.37700       25.38501       50.16988
C         80.90866       26.50829       52.97602
C         82.03547       27.39846       53.36717
O         82.37294       28.39200       52.52995
O         82.53861       27.32420       54.47611
H         81.21721       27.51658       50.52417
H         81.89480       24.89996       51.88532
H         80.65613       25.82044       53.81158
H         80.05138       27.19601       52.80424
N         79.22308       24.18300       52.05568
C         77.93533       23.62453       51.68569
C         76.86361       24.71450       51.69443
O         76.13364       24.78459       50.71661
C         77.54921       22.40689       52.55134
C         76.40993       21.65067       51.90902
C         75.15348       21.57588       52.52854
C         76.60376       21.01006       50.66867
C         74.10695       20.88161       51.91162
C         75.55813       20.31532       50.05932
C         74.30907       20.25270       50.67902
H         79.67209       23.88206       52.93288
H         78.05018       23.22758       50.65309
H         77.28987       22.71355       53.57955
H         78.40949       21.70608       52.62398
H         74.98132       22.06231       53.48010
H         77.56648       21.04344       50.17265
H         73.13753       20.83229       52.38843
H         75.71829       19.82665       49.10639
H         73.49907       19.71580       50.20345
N         76.71091       25.63584       52.70815
C         75.73026       26.71952       52.68197
C         75.89973       27.73771       51.55275
O         75.05940       28.61903       51.44799
C         75.93935       27.44282       54.02118
C         76.44056       26.32752       54.91022
C         77.41735       25.62842       53.97508
H         74.72477       26.24497       52.63451
H         76.79083       28.15913       53.92538
H         75.05545       28.00356       54.39243
H         76.88799       26.66326       55.87037
H         75.59193       25.63844       55.12140
H         78.32967       26.24260       53.87636
H         77.66585       24.63385       54.37727
N         76.96690       27.70360       50.69881
C         77.18779       28.66622       49.62110
C         77.10713       28.00020       48.25116
O         77.18089       28.70986       47.25655
C         78.58294       29.30557       49.77972
C         78.77719       29.99902       51.13802
C         80.17886       30.51043       51.33709
O         80.50271       31.09297       52.50533
O         81.03424       30.38039       50.47497
H         77.68032       26.98051       50.82279
H         76.40994       29.46022       49.64734
H         78.75892       30.04277       48.96504
H         79.33739       28.49700       49.68136
H         78.57953       29.27551       51.95616
H         78.06458       30.84663       51.22841
N         76.96362       26.65261       48.10774
C         76.86974       26.00531       46.82055
H         75.97071       26.36955       46.28137
H         77.78298       26.20891       46.22398
H         76.77568       24.90618       46.96253
H         76.92848       26.04434       48.92738
Ca        83.36007       30.19518       53.30660
O         83.20883       31.18802       48.56141
H         83.85275       31.38545       47.83609
H         82.33486       31.10647       48.10408
O         85.89267       32.30771       50.06120
H         85.88025       31.44673       49.58003
H         86.19951       32.96644       49.39003

Ca 1.0



