%chk=holoCaM.loop3.water2.frame360.chk
%nprocshared=20
%mem=10GB
%nosave
#b3lyp/svp scf=(tight,noincore,xqc) Test 
#IOP(5/87=12) Density=Current Pop=(MK,readradii) iop(6/33=2) iop(6/42=6)

holoCaM.loop3.water2.frame360 

   0  1 
C         87.95796       21.44696       66.49398
C         87.06908       21.39109       65.28936
O         87.51379       21.69599       64.19288
H         88.97559       21.79654       66.22103
H         87.52399       22.15252       67.23426
H         88.03006       20.43863       66.95274
N         85.77972       20.98831       65.42626
C         84.84177       20.94264       64.31382
C         84.54333       22.36315       63.83425
O         83.95589       23.13401       64.58000
C         83.57496       20.19861       64.78441
C         82.52083       20.01867       63.74888
O         81.39698       19.36243       64.07342
O         82.66466       20.44825       62.62225
H         85.46668       20.68555       66.36262
H         85.29962       20.34857       63.49122
H         83.12152       20.73882       65.64139
H         83.87576       19.18253       65.12497
N         84.98800       22.79024       62.61622
C         84.88304       24.17858       62.15915
C         83.51934       24.56541       61.60694
O         83.32649       25.74604       61.34876
C         85.96960       24.46524       61.10251
C         87.43676       24.32293       61.58183
C         87.84296       25.33366       62.67639
C         87.58200       24.86561       64.12387
N         87.79244       25.96080       65.06755
H         85.55628       22.13376       62.06365
H         85.03116       24.86536       63.00713
H         85.84817       25.50516       60.72689
H         85.81238       23.78241       60.23693
H         88.04202       24.56595       60.68069
H         87.70550       23.28663       61.87699
H         87.34936       26.30506       62.45805
H         88.94101       25.49809       62.61590
H         88.28088       24.03635       64.35830
H         86.56970       24.47167       64.29120
H         87.63084       25.61099       66.03981
H         88.76704       26.32919       64.98930
H         87.10580       26.72626       64.87186
N         82.54071       23.65423       61.36836
C         81.23364       24.00424       60.81781
C         80.11582       23.55302       61.75638
O         79.30183       24.39028       62.12205
C         81.13456       23.53462       59.34862
C         81.60223       22.13566       59.07741
O         82.58004       21.94532       58.37162
O         80.94760       21.08740       59.58058
H         82.74350       22.66155       61.53391
H         81.11334       25.10879       60.73446
H         81.80557       24.20188       58.76134
H         80.10337       23.68653       58.96291
N         80.05155       22.28448       62.25174
C         79.07050       21.84327       63.23750
C         78.30195       20.60385       62.81449
O         77.47394       20.15290       63.59335
H         80.76943       21.61415       61.97375
H         78.33917       22.64790       63.46863
H         79.61016       21.60300       64.17884
N         78.49976       20.00032       61.60549
C         77.72639       18.84919       61.14342
C         77.95207       17.58213       61.96282
O         77.19993       16.63440       61.78489
C         78.01080       18.57543       59.64654
C         79.37832       17.97568       59.37537
N         79.49468       16.81635       58.68827
O         80.38768       18.53775       59.76661
H         79.16886       20.41753       60.95683
H         76.65754       19.14459       61.23082
H         77.91568       19.53432       59.09131
H         77.23258       17.88823       59.25366
H         78.66245       16.32354       58.33489
H         80.42457       16.41509       58.49618
N         78.98832       17.47809       62.84135
C         79.24698       16.31131       63.66537
C         80.56923       15.64543       63.34672
O         80.92203       14.73278       64.08069
H         79.64080       18.26154       62.93668
H         78.44903       15.54409       63.56435
H         79.25966       16.64436       64.72577
N         81.33188       15.98916       62.26023
C         82.58362       15.30676       61.92971
C         83.74923       16.31019       61.75774
O         83.46713       17.49379       62.42797
C         82.43102       14.50346       60.62579
C         81.33564       13.46800       60.72029
C         79.97826       13.84094       60.68181
C         81.66649       12.11093       60.84662
C         78.97513       12.87363       60.77644
C         80.66216       11.14585       60.95118
C         79.31230       11.52422       60.91631
O         78.33471       10.60183       61.01618
H         81.00415       16.72207       61.61613
H         82.84881       14.59466       62.74235
H         83.40430       14.00243       60.43131
H         82.22385       15.16832       59.76015
H         79.68991       14.87715       60.57174
H         82.70319       11.80096       60.88087
H         77.93508       13.17459       60.74278
H         80.93602       10.10492       61.06139
H         78.52789        9.65922       61.11991
N         85.03187       15.77019       62.24039
C         86.22327       16.51665       61.76843
C         86.85381       15.81777       60.56355
O         87.14958       14.63348       60.65734
C         87.26935       16.65295       62.92282
C         86.62088       17.29294       64.18004
C         88.47389       17.50158       62.45215
C         87.57044       17.42887       65.37549
H         85.12663       14.73941       62.08854
H         85.94926       17.55837       61.49866
H         87.63427       15.63880       63.19793
H         85.77242       16.65814       64.51177
H         86.22457       18.29685       63.93015
H         89.26482       17.56100       63.22489
H         88.95690       17.04613       61.56935
H         88.14927       18.53304       62.19325
H         87.01287       17.83539       66.24527
H         87.99026       16.43855       65.65137
H         88.39834       18.13583       65.16403
N         87.17804       16.51575       59.43644
C         87.89814       15.92482       58.30541
C         89.34524       16.38209       58.31569
O         89.71176       17.14270       59.19316
C         87.21805       16.32311       56.98427
O         87.27010       17.71565       56.81816
H         86.99847       17.53180       59.42278
H         87.90500       14.81568       58.38147
H         86.16115       15.98455       56.99231
H         87.74222       15.82652       56.13734
H         87.01620       17.89886       55.87670
N         90.24040       15.95029       57.38497
C         91.61820       16.43814       57.32720
C         91.65978       17.92223       56.99421
O         92.45606       18.63797       57.58475
C         92.42973       15.66449       56.28904
H         89.92947       15.25672       56.68640
H         92.12014       16.25935       58.30627
H         93.48092       16.02849       56.28912
H         92.44153       14.58562       56.55476
H         92.00167       15.78845       55.27305
N         90.78561       18.45911       56.08798
C         90.73685       19.88418       55.73739
C         90.42488       20.80885       56.91806
O         90.43037       22.01852       56.73284
C         89.67099       20.10249       54.65219
H         90.12309       17.81909       55.62349
H         91.72733       20.17091       55.32397
H         89.64486       21.16439       54.32816
H         89.89386       19.47329       53.76468
H         88.66524       19.82473       55.03915
N         90.13698       20.31563       58.15028
C         89.80532       21.10049       59.32644
C         90.88893       20.88335       60.37378
O         91.46749       21.85926       60.82977
C         88.40410       20.66255       59.78721
C         87.35718       21.04662       58.71642
C         86.05102       20.38551       58.99507
O         85.57259       19.60095       58.19340
O         85.43395       20.59889       60.15936
H         90.10307       19.30491       58.27970
H         89.76761       22.19086       59.10495
H         88.13045       21.13264       60.75662
H         88.41012       19.55919       59.93455
H         87.68519       20.70849       57.71100
H         87.23536       22.15083       58.69374
N         91.27197       19.63124       60.75149
C         92.37776       19.38692       61.65111
H         93.30646       19.83765       61.23822
H         92.16244       19.81351       62.65112
H         92.54529       18.29185       61.75252
H         90.80211       18.81407       60.35781
Ca        84.00543       19.05675       60.88417
O         83.86690       16.71071       58.38783
H         84.31243       17.40383       57.84166
H         83.62194       16.00710       57.73592
O         82.25439       19.17406       57.17513
H         81.97822       19.93693       56.60790
H         82.12024       18.37848       56.60164

Ca 1.0



