%chk=holoCaM.loop1.water2.frame149.chk
%nprocshared=20
%mem=10GB
%nosave
#b3lyp/svp scf=(tight,noincore,xqc) Test 
#IOP(5/87=12) Density=Current Pop=(MK,readradii) iop(6/33=2) iop(6/42=6)

holoCaM.loop1.water2.frame149 

   0  1 
C         -2.18101       54.37013       21.78281
C         -2.07962       52.87749       21.84014
O         -3.07765       52.21137       21.60185
H         -2.93620       54.71812       22.51682
H         -1.20695       54.84966       22.01357
H         -2.49227       54.67620       20.76156
N         -0.89089       52.27361       22.12120
C         -0.74437       50.82822       22.11904
C         -1.53651       50.21122       23.26728
O         -1.21632       50.42652       24.42781
C          0.73679       50.44480       22.20002
C          0.98988       48.98613       21.99096
O          0.09403       48.20330       21.71244
O          2.24856       48.54778       22.09177
H         -0.05893       52.86270       22.28035
H         -1.11785       50.46711       21.13211
H          1.14527       50.75179       23.18662
H          1.29864       50.98130       21.40458
N         -2.63272       49.47021       22.97981
C         -3.54636       48.89662       23.95720
C         -2.92304       47.70957       24.68698
O         -3.00549       47.65169       25.90522
C         -4.84205       48.46827       23.21589
C         -6.06603       48.31076       24.13341
C         -7.31839       47.98732       23.29763
C         -8.60245       48.04997       24.13690
N         -9.77459       47.72248       23.32282
H         -2.88032       49.39982       21.99066
H         -3.84510       49.69946       24.66875
H         -4.66367       47.55179       22.61128
H         -5.11451       49.29004       22.51510
H         -6.22786       49.28190       24.65285
H         -5.90101       47.52101       24.89695
H         -7.20366       46.97737       22.84713
H         -7.42045       48.73097       22.47590
H         -8.72071       49.08030       24.54321
H         -8.53649       47.34085       24.99019
H        -10.63667       47.81107       23.90804
H         -9.85109       48.37956       22.51206
H         -9.70344       46.73974       22.97223
N         -2.32244       46.70257       23.98125
C         -1.89396       45.42209       24.55600
C         -0.37809       45.15507       24.49441
O          0.02932       44.07164       24.89147
C         -2.72502       44.29651       23.89935
C         -2.64613       44.30007       22.39983
O         -1.46498       44.13356       21.78523
O         -3.65535       44.47169       21.73408
H         -2.22631       46.82244       22.96152
H         -2.13810       45.37914       25.64024
H         -3.78949       44.44238       24.18986
H         -2.40730       43.30434       24.28509
N          0.52194       46.11912       24.14934
C          1.96547       45.98306       24.34713
C          2.71042       45.08713       23.37197
O          3.39097       44.17221       23.81387
H          0.16997       47.05068       23.89868
H          2.15840       45.65412       25.39316
H          2.42526       46.98769       24.24389
N          2.70032       45.35370       22.03598
C          3.54860       44.68168       21.04674
C          4.37529       45.68665       20.21914
O          4.98604       45.27846       19.24069
C          2.68971       43.75915       20.15660
C          1.48553       44.41789       19.55914
O          0.26361       43.90802       19.78570
O          1.59981       45.39963       18.85491
H          2.06957       46.09276       21.69600
H          4.28681       44.00391       21.53066
H          2.33191       42.91032       20.77823
H          3.32096       43.33161       19.34725
N          4.49250       46.99919       20.58053
C          5.27383       47.99473       19.85245
C          4.69092       48.43263       18.51551
O          5.30412       49.28614       17.88918
H          4.08145       47.30328       21.46618
H          6.31024       47.61871       19.70983
H          5.33487       48.91349       20.47670
N          3.53796       47.91236       18.00464
C          2.96673       48.29993       16.71381
C          1.50824       48.73064       16.84710
O          0.94384       48.67111       17.93011
C          3.10700       47.13440       15.69831
C          4.57099       46.87885       15.31473
O          2.50179       45.96018       16.17606
H          3.05174       47.18902       18.53719
H          3.51093       49.17485       16.29443
H          2.60166       47.40752       14.74864
H          3.12300       45.53038       16.82029
H          5.17290       46.58683       16.20035
H          4.61996       46.06330       14.56220
H          5.00892       47.79615       14.86665
N          0.85672       49.21962       15.75218
C         -0.52209       49.70115       15.71836
C         -1.29141       48.92486       14.64356
O         -0.81421       48.81746       13.52189
C         -0.50046       51.23696       15.44006
C          0.23096       52.02487       16.56905
C         -1.90243       51.82797       15.20601
C         -0.43210       51.96676       17.95709
H          1.39060       49.30290       14.87325
H         -1.03382       49.54753       16.68981
H          0.06929       51.40208       14.49850
H          0.29603       53.09410       16.27169
H          1.27181       51.65018       16.66666
H         -2.54819       51.70592       16.09277
H         -1.82485       52.91265       14.97805
H         -2.39563       51.34336       14.33963
H          0.16651       52.56525       18.67595
H         -1.45404       52.39705       17.93907
H         -0.48160       50.93214       18.34975
N         -2.52622       48.40991       14.91521
C         -3.36550       47.67509       13.96567
C         -4.49185       48.57128       13.47824
O         -4.51324       49.73482       13.83475
C         -3.97404       46.41862       14.65472
C         -2.91280       45.43094       15.14180
O         -4.84061       46.79989       15.69918
H         -2.93662       48.61457       15.83148
H         -2.77853       47.35920       13.07555
H         -4.58232       45.85075       13.92186
H         -4.34836       46.78670       16.55924
H         -2.29180       45.91822       15.91447
H         -3.40788       44.54384       15.59310
H         -2.27590       45.09553       14.29735
N         -5.47844       48.09694       12.66744
C         -6.64970       48.88870       12.28777
C         -7.44993       49.28513       13.52836
O         -7.70516       50.46662       13.71454
C         -7.54873       48.11720       11.28723
C         -6.83075       47.89501        9.94947
O         -7.94091       46.88077       11.82671
H         -5.41338       47.12333       12.33763
H         -6.31949       49.81942       11.77147
H         -8.44908       48.74616       11.09155
H         -8.71670       46.56476       11.29449
H         -6.54424       48.87127        9.50346
H         -5.91796       47.27715       10.07647
H         -7.50931       47.37521        9.24090
N         -7.85281       48.34193       14.43182
C         -8.62902       48.62882       15.64682
C         -7.94704       49.57288       16.64559
O         -8.58126       49.91257       17.63519
C         -9.03723       47.31188       16.36244
C         -7.84611       46.44534       16.81740
C         -8.31419       45.19177       17.56854
C         -7.15075       44.26376       17.96904
N         -6.52085       43.62273       16.81032
H         -7.61370       47.36602       14.21850
H         -9.57006       49.12989       15.32971
H         -9.66297       46.71080       15.66725
H         -9.66595       47.56402       17.24502
H         -7.18380       47.02928       17.48758
H         -7.27469       46.13259       15.92876
H         -9.03762       44.61560       16.95162
H         -8.83305       45.52366       18.49424
H         -7.56072       43.46497       18.62546
H         -6.39112       44.82945       18.55319
H         -5.78292       42.96283       17.14616
H         -7.23309       43.07721       16.27201
H         -6.06500       44.32270       16.18534
N         -6.69241       50.06292       16.45098
C         -6.02765       51.00749       17.34157
C         -5.95643       52.36087       16.64785
O         -6.40316       53.34133       17.22714
C         -4.65363       50.43740       17.76198
C         -4.85789       49.12213       18.53751
C         -3.59688       48.44911       18.99481
O         -2.65062       48.05438       18.13095
O         -3.46239       48.16625       20.16856
H         -6.16621       49.76980       15.62495
H         -6.60976       51.16577       18.27722
H         -4.11854       51.17044       18.40479
H         -4.04572       50.24782       16.85858
H         -5.39030       48.40155       17.89298
H         -5.49209       49.32794       19.42820
N         -5.49984       52.48134       15.37179
C         -5.54752       53.72449       14.63413
H         -4.89745       54.48236       15.11461
H         -5.20054       53.55602       13.59084
H         -6.59456       54.09673       14.58855
H         -5.15860       51.65706       14.87805
Ca        -0.94253       46.87505       19.01319
O         -2.99620       44.68062       18.57785
H         -3.55214       43.93539       18.23892
H         -3.61296       45.21718       19.13612
O         -0.18245       45.04763       16.80915
H         -0.01182       45.75577       16.13804
H          0.04975       44.20239       16.35177

Ca 1.0



