%chk=holoCaM.loop4.water3.frame434.chk
%nprocshared=20
%mem=10GB
%nosave
#b3lyp/svp scf=(tight,noincore,xqc) Test 
#IOP(5/87=12) Density=Current Pop=(MK,readradii) iop(6/33=2) iop(6/42=6)

holoCaM.loop4.water3.frame434 

   -3  1 
C        116.01134       69.75155       42.05548
C        116.02051       68.25550       42.14492
O        114.95208       67.66539       42.06893
H        115.39166       70.17212       42.87445
H        117.03643       70.17015       42.12428
H        115.57326       70.05267       41.07944
N        117.18921       67.56753       42.30633
C        117.24626       66.10994       42.32987
C        118.64635       65.61660       42.67335
O        119.59716       65.97044       41.98832
C        116.81800       65.53535       40.96200
C        116.81803       64.03957       40.98932
O        117.51482       63.40841       40.21126
O        116.05483       63.39217       41.88819
H        118.06492       68.10306       42.41238
H        116.53945       65.74409       43.10774
H        117.49983       65.90449       40.16468
H        115.78806       65.85208       40.70594
N        118.82166       64.74440       43.70746
C        120.10654       64.18261       44.11345
C        120.13768       62.66138       43.87609
O        121.19991       62.08102       44.03341
C        120.33306       64.52382       45.63607
C        120.25833       66.05810       45.87578
C        121.65579       63.95962       46.20365
C        120.22816       66.45207       47.35910
H        117.99026       64.45431       44.23910
H        120.92405       64.62618       43.50297
H        119.49811       64.05426       46.20446
H        119.31743       66.45361       45.44286
H        121.10778       66.56554       45.36995
H        122.52781       64.37720       45.65812
H        121.76453       64.18455       47.28178
H        121.68632       62.85549       46.16545
H        119.36985       65.96350       47.86942
H        121.16622       66.18504       47.88400
H        120.10582       67.55181       47.44788
N        119.01392       61.93765       43.56157
C        118.98590       60.47471       43.68048
C        118.21418       59.71579       42.60396
O        118.28883       58.49265       42.61396
C        118.40633       60.12943       45.06537
C        116.99769       60.63489       45.31318
O        116.28808       61.30756       44.37276
O        116.49515       60.42600       46.40161
H        118.12479       62.43157       43.46308
H        120.02442       60.07847       43.64414
H        119.06885       60.58386       45.83496
H        118.42845       59.02769       45.21434
N        117.43634       60.32707       41.67267
C        116.69608       59.60221       40.64819
C        115.58027       58.68685       41.14971
O        114.96717       58.05202       40.30262
H        117.38644       61.34869       41.65714
H        117.41586       58.99840       40.05404
H        116.22743       60.34021       39.96121
N        115.24326       58.54501       42.46984
C        114.19366       57.62473       42.92706
C        112.76686       58.06143       42.55516
O        111.83533       57.36110       42.92806
C        114.32697       57.33108       44.44706
C        114.07768       58.47777       45.37980
O        113.78977       59.57729       44.95602
O        114.16974       58.28593       46.70898
H        115.78050       59.05393       43.18120
H        114.37868       56.63671       42.45022
H        115.35280       56.95117       44.64282
H        113.61029       56.52612       44.71756
N        112.51126       59.16659       41.79432
C        111.17831       59.55208       41.35456
C        110.38840       60.34989       42.37372
O        109.28872       60.76138       42.03157
H        113.28975       59.71477       41.41731
H        110.61418       58.65900       41.00564
H        111.29005       60.22300       40.47477
N        110.87133       60.63921       43.61827
C        110.16382       61.47640       44.58125
C        111.06223       62.67050       44.99900
O        112.14145       62.19324       45.75706
C        109.74957       60.65263       45.82036
C        108.76412       59.52880       45.48126
C        108.34876       58.80479       46.73722
N        108.60409       57.48568       46.89581
O        107.77345       59.41877       47.62420
H        111.78053       60.26368       43.90027
H        109.23852       61.89243       44.12457
H        109.25863       61.33410       46.54939
H        110.65052       60.21233       46.30242
H        109.24027       58.82249       44.76767
H        107.85668       59.95432       45.00029
H        109.08799       56.94739       46.16294
H        108.31882       57.00031       47.75942
N        110.29712       63.61879       45.82594
C        111.04501       64.85423       46.13528
C        111.33573       64.84378       47.62875
O        110.40386       64.89659       48.42010
C        110.25157       66.13186       45.71482
C        111.01096       67.40869       46.09666
C        109.97500       66.16503       44.20006
H        109.34161       63.79679       45.44269
H        112.01117       64.86908       45.57924
H        109.27425       66.14101       46.24734
H        110.42466       68.30799       45.81169
H        111.16614       67.44716       47.19222
H        111.99507       67.44738       45.58266
H        109.37298       65.29795       43.86384
H        109.39758       67.07804       43.94017
H        110.92622       66.17452       43.62981
N        112.61629       64.72710       48.08215
C        112.96110       64.63763       49.50070
C        112.76359       65.97303       50.21188
O        112.51257       66.97923       49.56657
C        114.44385       64.18751       49.61833
C        114.92206       63.85069       51.00859
N        114.33974       62.85775       51.71959
O        115.86325       64.46421       51.48862
H        113.36614       64.62140       47.38432
H        112.31342       63.85738       49.95733
H        115.09206       64.97382       49.18042
H        114.58506       63.27522       49.01745
H        113.55396       62.31843       51.32972
H        114.68059       62.62314       52.66292
N        112.89805       66.04542       51.56515
C        112.91187       67.29425       52.33042
C        114.15829       68.15034       52.07093
O        114.21759       69.24353       52.61662
C        112.76106       66.99527       53.84908
C        113.68459       65.90537       54.36564
C        113.12235       64.71429       54.86354
C        115.08388       66.03330       54.33445
C        113.93729       63.67052       55.30317
C        115.89951       64.98229       54.77053
C        115.32708       63.79545       55.25204
O        116.09844       62.76834       55.66132
H        112.99244       65.15604       52.07022
H        112.02912       67.90588       52.03822
H        111.71114       66.65958       53.99681
H        112.88058       67.92458       54.44701
H        112.04775       64.58388       54.89994
H        115.54958       66.93388       53.96477
H        113.48515       62.75851       55.67277
H        116.97593       65.08824       54.72670
H        117.06460       62.80279       55.62556
N        115.18307       67.74110       51.26433
C        116.38128       68.53413       50.99135
C        116.43538       68.93372       49.51302
O        117.40540       69.54633       49.09281
C        117.60903       67.69215       51.42643
C        118.95968       68.43321       51.42540
C        118.95133       69.60650       52.36577
O        118.70780       69.41922       53.67752
O        119.16884       70.73228       51.94753
H        115.13092       66.82459       50.80504
H        116.36992       69.47113       51.58746
H        117.68506       66.79324       50.77549
H        117.43800       67.33661       52.46578
H        119.23370       68.75911       50.40265
H        119.75059       67.72896       51.76071
N        115.39743       68.65649       48.67273
C        115.37437       68.96230       47.25124
C        114.31002       70.01023       46.99486
O        114.62941       71.06029       46.45485
C        115.08401       67.66799       46.46230
C        116.15947       66.59706       46.71405
C        115.84051       65.28660       46.05059
O        116.56782       64.32539       46.23822
O        114.74879       65.14608       45.27576
H        114.55837       68.20160       49.04410
H        116.35269       69.36673       46.90659
H        115.03148       67.89186       45.37367
H        114.10146       67.26019       46.78687
H        116.23558       66.40473       47.80286
H        117.14366       66.96255       46.35464
N        113.02202       69.80710       47.38730
C        111.98487       70.79559       47.19609
H        111.02522       70.41868       47.61124
H        112.25376       71.73347       47.72705
H        111.84962       71.00114       46.11393
H        112.76655       68.93026       47.85787
Ca       114.20336       62.18057       44.73271
O        114.19961       61.38065       47.53172
H        113.35150       60.96028       47.81607
H        114.85480       61.11483       48.22424
O        113.64764       62.16459       41.49294
H        112.69835       62.29575       41.24801
H        114.10769       61.99435       40.63247
O        113.16860       64.71878       42.83995
H        114.06086       65.12519       42.70787
H        112.60576       65.13080       42.13828

Ca 1.0



