%chk=holoCaM-CaMKII.loop1.water1.frame172.chk
%nprocshared=20
%mem=10GB
%nosave
#b3lyp/svp scf=(tight,noincore,xqc) Test 
#IOP(5/87=12) Density=Current Pop=(MK,readradii) iop(6/33=2) iop(6/42=6)

holoCaM-CaMKII.loop1.water1.frame172 

   0  1 
C        114.56226       55.13742       16.09430
C        115.04707       56.54397       15.93236
O        115.42646       57.16413       16.91366
H        113.50565       55.08022       15.75613
H        115.18223       54.45138       15.48156
H        114.61172       54.82382       17.15866
N        115.05286       57.12014       14.70035
C        115.43937       58.50696       14.47701
C        114.48551       59.42890       15.22331
O        113.28999       59.37803       14.97269
C        115.48237       58.79117       12.95446
C        115.70889       60.22869       12.54332
O        116.78961       60.93111       12.93397
O        114.89986       60.76491       11.80412
H        114.76054       56.54418       13.89519
H        116.45758       58.62829       14.87349
H        114.52252       58.46254       12.50043
H        116.29492       58.16961       12.51534
N        114.96298       60.29413       16.16718
C        114.13081       61.17726       16.97197
C        114.39250       62.62058       16.57479
O        113.46054       63.28977       16.15067
C        114.42821       61.00289       18.48403
C        114.19667       59.60622       19.08635
C        112.73779       59.13400       18.99668
C        112.45231       57.89921       19.87513
N        113.21622       56.71730       19.47427
H        115.97491       60.34706       16.31640
H        113.05366       60.96651       16.79566
H        113.80095       61.72626       19.05016
H        115.49142       61.25782       18.68337
H        114.47255       59.68062       20.16167
H        114.87708       58.87176       18.61582
H        112.46821       58.92551       17.93920
H        112.08137       59.94772       19.37376
H        111.36677       57.66575       19.80584
H        112.67678       58.14170       20.93825
H        114.24159       56.88028       19.58890
H        112.94510       55.91829       20.09289
H        112.99643       56.46594       18.48405
N        115.63621       63.17579       16.69608
C        115.92406       64.57377       16.36490
C        115.74583       64.91923       14.87557
O        115.83405       66.09437       14.54779
C        117.32224       64.98500       16.88767
C        118.47480       64.20598       16.31379
O        119.72798       64.49381       16.71382
O        118.29283       63.30497       15.51126
H        116.39154       62.59576       17.09033
H        115.19829       65.19994       16.93200
H        117.34070       64.84572       17.99165
H        117.48358       66.06606       16.68552
N        115.42104       63.98111       13.93666
C        115.01233       64.31001       12.57537
C        116.13613       64.68875       11.63292
O        116.08647       65.75552       11.03852
H        115.33055       62.99560       14.21540
H        114.22716       65.09725       12.60767
H        114.54255       63.40744       12.13263
N        117.15303       63.81424       11.40478
C        118.22403       63.99490       10.42928
C        118.38113       62.78167        9.49176
O        119.31198       62.78808        8.69743
C        119.53624       64.32352       11.16918
C        119.87052       63.38185       12.28758
O        120.00426       62.19139       12.08515
O        120.03338       63.86227       13.53185
H        117.18205       62.96665       11.97406
H        118.02427       64.87056        9.77247
H        119.43327       65.33706       11.61329
H        120.37622       64.36268       10.44296
N        117.49655       61.73797        9.47368
C        117.59581       60.61745        8.54097
C        118.65808       59.58469        8.88097
O        118.74803       58.61071        8.14495
H        116.66140       61.76909       10.07213
H        117.74169       61.00126        7.50666
H        116.63036       60.06638        8.55295
N        119.47499       59.69382        9.96825
C        120.44507       58.67050       10.35950
C        120.19587       58.19659       11.78536
O        119.36971       58.76343       12.48766
C        121.89621       59.19006       10.20503
C        122.26456       59.44414        8.73671
O        122.11331       60.33848       10.98533
H        119.39670       60.52567       10.55788
H        120.33716       57.77385        9.70937
H        122.60062       58.40753       10.56039
H        121.71497       61.11348       10.50983
H        123.32013       59.78372        8.67096
H        122.16113       58.50469        8.15293
H        121.60963       60.22046        8.28853
N        120.85634       57.09879       12.24866
C        120.67320       56.50190       13.56897
C        122.04412       56.33660       14.22107
O        122.94520       55.80340       13.58648
C        119.92394       55.14244       13.41294
C        118.51134       55.39850       12.80906
C        119.80456       54.41650       14.76993
C        117.72458       54.13039       12.47692
H        121.48813       56.60699       11.59656
H        120.03212       57.13923       14.21978
H        120.50617       54.49443       12.72074
H        118.61068       55.95409       11.85375
H        117.91027       56.02359       13.50751
H        119.31531       53.42889       14.65613
H        120.80673       54.21273       15.19706
H        119.22230       55.02584       15.49409
H        117.50040       53.53320       13.38244
H        116.75362       54.41566       12.01797
H        118.29015       53.51091       11.74942
N        122.24937       56.71446       15.51503
C        123.51428       56.56322       16.22841
C        123.40551       55.41975       17.21846
O        122.35271       54.81407       17.32433
C        123.89367       57.87576       16.97923
C        124.03267       59.08428       16.04629
O        122.98962       58.14176       18.02617
H        121.44584       57.04677       16.05157
H        124.32946       56.30899       15.51671
H        124.88937       57.74728       17.45229
H        122.23150       58.66801       17.67019
H        123.06939       59.28891       15.53780
H        124.31825       59.98050       16.64011
H        124.81650       58.89667       15.28463
N        124.47075       55.06881       17.98361
C        124.42300       54.03968       19.02151
C        123.43026       54.41607       20.11345
O        122.61767       53.58686       20.49546
C        125.82612       53.82965       19.64121
C        126.79988       53.22825       18.62064
O        126.33419       55.04911       20.12448
H        125.35406       55.57840       17.83273
H        124.11113       53.06465       18.58261
H        125.72107       53.09603       20.47608
H        126.90180       54.84255       20.91137
H        126.93753       53.89464       17.74405
H        127.78909       53.06249       19.09542
H        126.41516       52.24839       18.26403
N        123.44159       55.66852       20.64546
C        122.55216       56.12863       21.71472
C        121.10054       55.92764       21.33164
O        120.35806       55.31485       22.08608
C        122.83762       57.61902       22.02341
C        124.24963       57.77890       22.61639
C        124.63565       59.24135       22.85571
C        126.01968       59.37146       23.52370
N        127.10129       58.80595       22.71044
H        124.10661       56.33961       20.23493
H        122.74189       55.54648       22.64362
H        122.10204       58.00158       22.76523
H        122.73480       58.22068       21.09173
H        124.99182       57.34333       21.92390
H        124.29322       57.22277       23.57781
H        123.88362       59.71351       23.52440
H        124.63658       59.79045       21.88819
H        126.00400       58.86940       24.51656
H        126.22327       60.45178       23.69036
H        127.01190       57.76774       22.63567
H        127.10442       59.23600       21.75733
H        128.01567       59.00641       23.17560
N        120.64791       56.37982       20.13738
C        119.28682       56.18746       19.64621
C        118.92148       54.70881       19.62701
O        117.88773       54.35247       20.17580
C        119.16467       56.84766       18.25997
C        119.29095       58.38263       18.41110
C        119.27591       59.07591       17.09267
O        120.17948       58.94123       16.29026
O        118.21301       59.79351       16.74795
H        121.33242       56.85124       19.52846
H        118.55992       56.69722       20.31785
H        118.17279       56.62093       17.80836
H        119.94490       56.43169       17.59031
H        120.20934       58.69315       18.94609
H        118.41770       58.72782       19.00711
N        119.75285       53.78147       19.08376
C        119.47787       52.36156       19.13566
H        118.55351       52.12804       18.56864
H        120.32628       51.79522       18.69386
H        119.36037       52.03751       20.19282
H        120.63503       54.08500       18.66747
Ca       118.10139       60.26431       14.58116
O        122.10791       61.37291       14.32047
H        121.99127       61.29439       13.34307
H        123.08250       61.50200       14.43352

Ca 1.0



