%chk=holoCaM-CaMKII.loop3.water3.frame239.chk
%nprocshared=20
%mem=10GB
%nosave
#b3lyp/svp scf=(tight,noincore,xqc) Test 
#IOP(5/87=12) Density=Current Pop=(MK,readradii) iop(6/33=2) iop(6/42=6)

holoCaM-CaMKII.loop3.water3.frame239 

   0  1 
C         80.25505       10.75148       34.69181
C         79.74619        9.61819       33.85420
O         80.46849        8.64744       33.67525
H         81.18417       11.15489       34.23924
H         79.50822       11.56988       34.76336
H         80.47517       10.38323       35.71599
N         78.49167        9.65568       33.32590
C         77.95192        8.55548       32.54237
C         78.67493        8.46335       31.20835
O         78.59574        9.40639       30.43170
C         76.44779        8.75833       32.33110
C         75.79012        7.55004       31.75784
O         76.48350        6.43097       31.47004
O         74.58177        7.55537       31.62132
H         77.89019       10.46858       33.53402
H         78.08002        7.62888       33.14513
H         76.25223        9.64459       31.68855
H         75.97040        8.93569       33.31973
N         79.45262        7.38513       30.90198
C         80.33330        7.38835       29.73818
C         79.64820        7.09556       28.40629
O         80.28293        7.34825       27.39173
C         81.55241        6.47273       29.96538
C         81.22919        4.96979       29.95376
C         82.50099        4.16452       30.24629
C         82.26018        2.65724       30.11501
N         83.48678        1.91266       30.40014
H         79.55936        6.64914       31.61313
H         80.76167        8.41499       29.67530
H         82.01595        6.75006       30.93883
H         82.30014        6.67200       29.16622
H         80.83909        4.69388       28.95000
H         80.45755        4.72125       30.71253
H         82.85166        4.39898       31.27623
H         83.29528        4.45636       29.52454
H         81.92844        2.43099       29.07689
H         81.46075        2.33625       30.81854
H         83.78508        2.07911       31.38885
H         83.30837        0.89149       30.26606
H         84.24968        2.20975       29.74849
N         78.40318        6.53232       28.30930
C         77.76048        6.25853       27.01590
C         76.41997        6.96954       26.86312
O         75.80470        6.83484       25.81362
C         77.62482        4.73661       26.77763
C         76.62434        4.02358       27.64484
O         76.46619        2.82106       27.51215
O         75.86617        4.69236       28.52810
H         77.90945        6.26251       29.17212
H         78.40547        6.63018       26.19073
H         78.62368        4.26878       26.91407
H         77.31282        4.57001       25.72301
N         75.90812        7.75446       27.85223
C         74.65533        8.46938       27.73275
C         73.44715        7.56411       27.69421
O         72.65330        7.69004       26.77249
H         76.43562        7.90294       28.72303
H         74.68534        9.13516       26.84148
H         74.53343        9.11723       28.62796
N         73.19412        6.69921       28.72216
C         71.90817        6.02894       28.90078
C         71.20582        6.57413       30.15590
O         70.16868        6.04743       30.52878
C         72.04496        4.47705       28.83508
C         72.48854        3.66842       30.07852
N         71.39399        2.84481       30.58643
O         72.91374        4.48041       31.11101
H         73.90067        6.59216       29.46154
H         71.24567        6.27222       28.04136
H         72.71944        4.21948       27.98965
H         71.05351        4.07419       28.53156
H         71.16530        2.10717       29.88424
H         71.70965        2.36430       31.46041
N         71.68639        7.68454       30.81018
C         71.05481        8.31660       31.96320
C         71.38129        7.67915       33.30802
O         70.87657        8.17055       34.30784
H         72.48423        8.19773       30.41364
H         69.95780        8.37596       31.79773
H         71.43036        9.36141       32.03021
N         72.20125        6.59830       33.42239
C         72.49244        5.89367       34.67169
C         73.98805        5.71668       34.87379
O         74.69998        5.43419       33.91972
C         71.81203        4.51658       34.61497
C         70.31619        4.70551       34.62700
C         69.65619        5.01139       35.82973
C         69.57657        4.62248       33.43957
C         68.27569        5.22691       35.84224
C         68.19898        4.85858       33.44929
C         67.54334        5.16011       34.65260
O         66.21566        5.39235       34.67691
H         72.59764        6.20645       32.56729
H         72.07955        6.43145       35.55479
H         72.09765        3.87844       35.48047
H         72.14536        3.99361       33.69233
H         70.21143        5.07865       36.75772
H         70.07230        4.40265       32.50536
H         67.77705        5.45531       36.77610
H         67.64451        4.81300       32.52089
H         65.67539        5.37190       33.87429
N         74.51510        5.78219       36.12889
C         75.92973        5.60129       36.44428
C         76.08894        4.32579       37.26353
O         75.38989        4.15958       38.25586
C         76.46184        6.83909       37.22475
C         76.22616        8.14159       36.41483
C         77.96237        6.66389       37.54923
C         76.54306        9.41440       37.20349
H         73.87338        5.95278       36.91999
H         76.53504        5.50935       35.51327
H         75.89310        6.91320       38.17866
H         75.15405        8.21506       36.13442
H         76.82678        8.12163       35.48022
H         78.13750        5.74434       38.14346
H         78.55756        6.59760       36.61240
H         78.34884        7.50354       38.15876
H         75.92407        9.45295       38.12582
H         77.61447        9.47737       37.47687
H         76.30218       10.30228       36.58196
N         77.02949        3.40022       36.92232
C         77.25231        2.14294       37.63327
C         78.57622        2.17198       38.37641
O         79.25029        3.19010       38.34719
C         77.23899        0.98750       36.61469
O         78.30566        1.13131       35.71556
H         77.65069        3.61332       36.12905
H         76.45066        1.96641       38.38353
H         76.27481        1.00042       36.06237
H         77.33521        0.01389       37.14145
H         78.25684        0.36219       35.09139
N         79.01672        1.08785       39.07344
C         80.31757        1.03510       39.73406
C         81.44285        1.13504       38.71638
O         82.29467        1.99965       38.85972
C         80.46635       -0.26648       40.52897
H         78.40510        0.25766       39.12783
H         80.39478        1.87035       40.46764
H         79.66938       -0.32905       41.30022
H         80.39217       -1.15425       39.86620
H         81.45062       -0.28513       41.04543
N         81.49888        0.27624       37.65201
C         82.57184        0.29495       36.65324
C         82.65593        1.59216       35.84994
O         83.59981        1.73587       35.08412
C         82.40668       -0.88265       35.68527
H         80.76065       -0.43899       37.56930
H         83.53547        0.16191       37.19318
H         82.40063       -1.83931       36.24955
H         81.45182       -0.78951       35.12395
H         83.24863       -0.91471       34.96079
N         81.74229        2.59090       35.99159
C         81.86415        3.89910       35.36658
C         82.51062        4.83144       36.37287
O         83.54277        5.40941       36.06386
C         80.47611        4.39557       34.91678
C         79.89374        3.49399       33.81501
C         78.49857        3.90477       33.44858
O         78.27678        5.02806       33.03612
O         77.48172        3.03103       33.56823
H         80.96138        2.46705       36.64406
H         82.52266        3.86155       34.46875
H         80.55746        5.43294       34.52326
H         79.79484        4.41347       35.79357
H         79.87032        2.43893       34.15562
H         80.54090        3.55073       32.91452
N         81.99352        4.96622       37.62601
C         82.60684        5.74501       38.67989
H         83.52725        6.26379       38.34299
H         81.88122        6.49636       39.05273
H         82.87621        5.06520       39.51769
H         81.14180        4.45630       37.87176
Ca        75.14086        4.69820       31.12127
O         74.51337        2.22036       33.34631
H         73.68606        1.67784       33.38092
H         74.94368        2.07141       34.22529
O         77.67734        2.08874       30.76118
H         78.37813        2.17189       30.06715
H         77.71546        1.14039       31.04398
O         74.68291        1.35580       30.16285
H         73.91467        1.14042       29.57688
H         75.10989        2.13657       29.73015

Ca 1.0



