%chk=holoCaM.loop3.water2.frame431.chk
%nprocshared=20
%mem=10GB
%nosave
#b3lyp/svp scf=(tight,noincore,xqc) Test 
#IOP(5/87=12) Density=Current Pop=(MK,readradii) iop(6/33=2) iop(6/42=6)

holoCaM.loop3.water2.frame431 

   0  1 
C          1.31916      -20.11024       48.19332
C          1.49619      -21.59783       48.12444
O          0.78371      -22.23916       47.36457
H          0.28654      -19.86811       48.51671
H          2.03841      -19.64738       48.90098
H          1.49608      -19.67699       47.18509
N          2.46237      -22.21835       48.85857
C          2.74013      -23.63885       48.71653
C          1.59539      -24.49752       49.23311
O          1.22342      -24.38827       50.39300
C          4.06098      -24.02182       49.40448
C          4.53383      -25.38460       48.96646
O          3.82988      -26.11655       48.08305
O          5.59776      -25.80626       49.36713
H          3.07108      -21.64654       49.46483
H          2.89722      -23.81700       47.63333
H          3.95944      -23.96873       50.51068
H          4.84846      -23.30202       49.09056
N          1.00951      -25.39555       48.39741
C         -0.10241      -26.26678       48.75655
C          0.25369      -27.23302       49.87657
O         -0.46563      -27.24873       50.86587
C         -0.58467      -27.05801       47.52017
C         -1.13544      -26.11830       46.43089
C         -1.64621      -26.89593       45.21630
C         -2.19167      -25.92854       44.15560
N         -2.65969      -26.65133       42.97504
H          1.37499      -25.44983       47.43869
H         -0.95945      -25.64007       49.09346
H         -1.40468      -27.74263       47.83104
H          0.24915      -27.67081       47.11139
H         -0.34717      -25.41727       46.08509
H         -1.97099      -25.52100       46.85756
H         -2.45354      -27.59200       45.53152
H         -0.81265      -27.49103       44.78423
H         -1.39363      -25.21553       43.85354
H         -3.03354      -25.34162       44.58605
H         -1.86862      -27.18213       42.54314
H         -3.42789      -27.31000       43.23897
H         -3.02613      -25.96374       42.27766
N          1.33352      -28.06936       49.79918
C          1.63717      -29.06604       50.83163
C          2.77931      -28.64332       51.75193
O          3.11150      -29.40450       52.65077
C          1.83434      -30.46677       50.20161
C          3.06739      -30.63537       49.35634
O          3.95170      -29.63764       49.20938
O          3.28375      -31.70715       48.81433
H          1.96422      -27.98726       48.98805
H          0.76128      -29.17506       51.50810
H          0.94240      -30.69992       49.57990
H          1.88900      -31.22228       51.01538
N          3.35705      -27.40935       51.66029
C          4.29774      -26.89599       52.64534
C          5.68409      -27.50744       52.62505
O          6.48208      -27.10011       53.45768
H          3.03288      -26.74908       50.94107
H          3.85272      -27.01436       53.65830
H          4.43342      -25.80728       52.46869
N          6.07295      -28.45633       51.72443
C          7.42573      -29.01747       51.72666
C          8.52124      -27.99509       51.38525
O          9.68602      -28.34453       51.52268
C          7.52352      -30.25165       50.79353
C          7.27059      -29.98338       49.32680
N          7.38550      -30.98801       48.42933
O          6.96113      -28.86930       48.93905
H          5.38790      -28.81294       51.04879
H          7.62116      -29.39040       52.75745
H          6.79121      -31.01666       51.13276
H          8.54041      -30.68895       50.89573
H          7.64757      -31.93707       48.73256
H          7.21978      -30.81463       47.42706
N          8.23984      -26.73843       50.92312
C          9.24678      -25.72756       50.61857
C          9.35217      -25.37526       49.13641
O         10.18862      -24.54817       48.80964
H          7.26492      -26.46852       50.78739
H         10.25520      -26.07566       50.93030
H          9.01573      -24.81406       51.20711
N          8.61640      -26.01719       48.18018
C          8.86952      -25.91121       46.73922
C          7.58424      -25.67413       45.96300
O          6.64308      -26.42287       46.16594
C          9.45263      -27.26364       46.28706
C         10.75373      -27.55091       46.99292
C         10.78798      -28.44865       48.07248
C         11.93784      -26.91286       46.59018
C         11.98726      -28.70195       48.74155
C         13.14150      -27.18221       47.24931
C         13.16869      -28.07685       48.32997
O         14.32026      -28.34331       48.97825
H          7.93812      -26.72521       48.47691
H          9.61066      -25.11709       46.50107
H          9.61377      -27.29977       45.18709
H          8.71194      -28.05724       46.53400
H          9.88295      -28.93745       48.40892
H         11.93051      -26.21883       45.75853
H         11.99685      -29.38602       49.58056
H         14.05080      -26.69480       46.92068
H         15.16156      -27.94116       48.71944
N          7.49366      -24.70222       45.00221
C          6.29442      -24.51705       44.17915
C          6.58636      -24.79783       42.70449
O          7.39295      -24.11327       42.09414
C          5.64149      -23.11820       44.40891
C          6.57192      -21.92245       44.06892
C          5.13446      -23.04024       45.85872
C          5.88323      -20.56100       44.18809
H          8.30971      -24.09937       44.82562
H          5.51743      -25.25177       44.47816
H          4.74951      -23.06215       43.74563
H          6.90887      -21.99575       43.01814
H          7.46624      -21.92810       44.72697
H          4.47429      -23.90497       46.06016
H          5.97830      -23.06472       46.57971
H          4.52926      -22.12882       46.03434
H          5.57872      -20.34674       45.23175
H          6.59143      -19.76381       43.87836
H          4.99274      -20.52082       43.52473
N          5.93868      -25.81945       42.06736
C          6.07640      -26.11468       40.63975
C          5.46236      -25.00815       39.78629
O          4.94190      -24.05015       40.33314
C          5.37978      -27.45724       40.32336
O          4.00842      -27.37499       40.60109
H          5.31459      -26.41781       42.62468
H          7.15430      -26.23100       40.39268
H          5.84112      -28.25340       40.94950
H          5.52522      -27.72567       39.25453
H          3.63002      -28.27183       40.40881
N          5.45936      -25.09473       38.42535
C          4.78873      -24.12710       37.55752
C          3.29219      -24.10490       37.82304
O          2.74014      -23.03376       38.02951
C          5.02628      -24.47900       36.08458
H          5.93456      -25.89770       37.98589
H          5.21683      -23.11252       37.72234
H          4.62310      -25.48551       35.84292
H          4.53065      -23.72888       35.43037
H          6.11459      -24.46606       35.86414
N          2.58173      -25.26999       37.85337
C          1.14218      -25.35050       38.09786
C          0.75088      -24.61739       39.36363
O         -0.14760      -23.78853       39.31571
C          0.71093      -26.81957       38.20419
H          3.10281      -26.15095       37.72138
H          0.59576      -24.89703       37.24103
H          0.95603      -27.35857       37.26464
H          1.23120      -27.32332       39.04788
H         -0.38556      -26.88825       38.37112
N          1.42011      -24.84583       40.52533
C          1.12945      -24.14928       41.77467
C          1.21018      -22.64500       41.57201
O          0.22860      -21.96099       41.82809
C          2.10102      -24.61094       42.88366
C          1.88189      -26.09137       43.24453
C          2.83389      -26.54058       44.30930
O          3.58164      -27.48458       44.11203
O          2.85538      -25.91452       45.49624
H          2.19748      -25.52040       40.49878
H          0.09433      -24.39375       42.10149
H          1.92461      -24.00140       43.79801
H          3.15049      -24.45139       42.55246
H          2.00817      -26.74234       42.35555
H          0.84837      -26.22102       43.62086
N          2.33152      -22.06519       41.06970
C          2.41932      -20.64795       40.79778
H          3.41088      -20.40996       40.35626
H          1.63296      -20.35442       40.06907
H          2.29440      -20.07020       41.73673
H          3.13934      -22.65091       40.84150
Ca         4.61206      -28.01569       47.16025
O          6.29587      -29.35787       45.10174
H          6.46738      -30.32842       45.00978
H          6.98045      -28.92647       44.53147
O          2.33613      -29.66172       46.20056
H          2.44059      -29.84365       45.23305
H          1.41573      -29.95649       46.41373

Ca 1.0



