%chk=holoCaM-CaMKII.loop4.water1.frame313.chk
%nprocshared=20
%mem=10GB
%nosave
#b3lyp/svp scf=(tight,noincore,xqc) Test 
#IOP(5/87=12) Density=Current Pop=(MK,readradii) iop(6/33=2) iop(6/42=6)

holoCaM-CaMKII.loop4.water1.frame313 

   -3  1 
C         56.08176       34.51806       50.78282
C         55.40584       35.84762       50.83479
O         55.98891       36.81504       50.36429
H         57.04048       34.58150       51.33741
H         55.44883       33.72923       51.23729
H         56.28604       34.25312       49.72375
N         54.16047       35.98139       51.37421
C         53.49322       37.26571       51.38512
C         54.21336       38.24032       52.29907
O         54.31001       38.00402       53.49537
C         52.02649       37.17386       51.82627
C         51.34067       38.47786       51.53147
O         50.15565       38.61117       51.77295
O         52.00159       39.44597       50.86170
H         53.66484       35.15014       51.72952
H         53.48766       37.61994       50.32587
H         51.95072       36.90867       52.90328
H         51.50273       36.39582       51.22980
N         54.72915       39.37575       51.77524
C         55.42422       40.38986       52.54402
C         54.39441       41.30139       53.22049
O         54.44646       41.45762       54.43206
C         56.42108       41.15345       51.60944
C         57.36601       40.13631       50.89101
C         57.24491       42.16896       52.42258
C         58.29061       40.75431       49.84271
H         54.64369       39.50784       50.76345
H         56.05854       39.89442       53.31457
H         55.84027       41.69981       50.83364
H         56.76972       39.38854       50.33225
H         57.97386       39.58405       51.64035
H         56.58228       42.90283       52.92450
H         57.84912       41.64495       53.19517
H         57.93018       42.74532       51.76939
H         57.69425       41.28154       49.06838
H         59.01830       41.45360       50.29720
H         58.86606       39.94290       49.34577
N         53.43336       41.94095       52.48490
C         52.48350       42.91733       53.03878
C         51.44964       42.34749       54.01300
O         50.69776       43.14045       54.56651
C         51.66860       43.58959       51.90583
C         52.52687       44.19127       50.83276
O         52.42298       43.80131       49.68075
O         53.40489       45.16659       51.12966
H         53.42928       41.77623       51.46800
H         53.07798       43.70128       53.56017
H         51.03037       44.39701       52.32903
H         50.99650       42.83191       51.44719
N         51.29290       41.01237       54.24155
C         50.23348       40.48653       55.09617
C         48.82364       40.60262       54.51015
O         47.89775       40.17740       55.18672
H         51.93843       40.33719       53.81041
H         50.27922       40.98776       56.08897
H         50.41635       39.40307       55.26135
N         48.56769       41.12979       53.27187
C         47.22188       41.21934       52.68146
C         46.65739       39.86547       52.21193
O         45.59035       39.86270       51.61412
C         47.18861       42.30450       51.56401
C         48.07027       42.04129       50.38700
O         48.29373       42.91994       49.57037
O         48.67685       40.86356       50.27051
H         49.35203       41.51691       52.73289
H         46.52697       41.62649       53.44799
H         47.54426       43.24940       52.03007
H         46.15383       42.47110       51.19800
N         47.26887       38.67602       52.49795
C         46.69487       37.37451       52.19018
C         46.92577       36.87855       50.77918
O         46.50895       35.75745       50.51840
H         48.11058       38.66237       53.08145
H         45.61264       37.36444       52.44547
H         47.18746       36.62259       52.84514
N         47.57831       37.60279       49.82218
C         47.84565       37.07317       48.48625
C         49.32057       37.10510       48.13654
O         50.11697       37.71591       48.83640
C         46.94421       37.76673       47.43064
C         46.94138       39.31118       47.37472
C         48.16713       39.95166       46.76582
N         48.05878       40.71179       45.64930
O         49.25809       39.82041       47.29279
H         47.89404       38.55509       50.03908
H         47.57214       35.99530       48.45062
H         45.90546       37.47915       47.70465
H         47.13296       37.35322       46.41538
H         46.75834       39.72997       48.38526
H         46.06715       39.59769       46.75054
H         47.14766       40.86086       45.19143
H         48.88882       41.16732       45.24321
N         49.74685       36.41013       47.04953
C         51.10924       36.39770       46.53820
C         51.02667       36.83775       45.09042
O         50.33214       36.18174       44.32296
C         51.71563       34.96807       46.68445
C         53.07481       34.82329       45.97882
C         51.89858       34.61314       48.17118
H         49.05032       35.84553       46.53624
H         51.76361       37.09753       47.10122
H         51.02238       34.23104       46.22171
H         52.97930       35.01283       44.88970
H         53.82018       35.52154       46.40857
H         53.45807       33.78624       46.09735
H         52.30136       33.58258       48.27702
H         52.61367       35.31641       48.65395
H         50.93332       34.66092       48.71500
N         51.72279       37.91875       44.63380
C         51.71324       38.31186       43.22934
C         52.96717       37.79087       42.56298
O         53.74811       37.11915       43.21485
C         51.47447       39.83453       43.02044
C         52.64822       40.75211       43.28922
N         53.08156       41.00857       44.53958
O         53.18763       41.31525       42.34758
H         52.36253       38.40019       45.27700
H         50.86434       37.81429       42.71165
H         50.58309       40.17484       43.58890
H         51.22086       39.96631       41.94680
H         52.61356       40.59795       45.35359
H         53.86842       41.65835       44.69090
N         53.22286       38.03727       41.25609
C         54.39559       37.52223       40.55611
C         55.68693       37.88924       41.28018
O         56.49013       37.00575       41.54380
C         54.38643       38.07778       39.12051
C         55.52834       37.58226       38.27393
C         55.66580       36.21551       37.97712
C         56.45598       38.49683       37.75228
C         56.71529       35.77469       37.16503
C         57.50293       38.05468       36.94243
C         57.63469       36.69146       36.64288
O         58.63546       36.25441       35.85298
H         52.55260       38.62224       40.73410
H         54.32565       36.41219       40.50711
H         54.40386       39.18874       39.17703
H         53.43664       37.78433       38.62155
H         54.95767       35.49318       38.36421
H         56.36665       39.55433       37.96853
H         56.80992       34.72059       36.93611
H         58.20682       38.77444       36.54517
H         59.28288       36.85992       35.46424
N         55.92763       39.17357       41.65885
C         57.14551       39.60822       42.34301
C         57.38364       38.83631       43.63213
O         58.46660       38.29154       43.79738
C         57.08497       41.11847       42.66580
C         57.02871       41.99056       41.40105
C         57.00785       43.44723       41.76201
O         57.90126       44.18730       41.38258
O         55.99568       43.94740       42.49683
H         55.19532       39.86753       41.45735
H         58.02039       39.44089       41.67499
H         58.00490       41.39649       43.22829
H         56.20466       41.32952       43.31318
H         56.11953       41.77378       40.80466
H         57.91934       41.77406       40.77084
N         56.42024       38.75467       44.59159
C         56.61592       38.07665       45.87671
C         57.02147       36.62713       45.65177
O         58.08125       36.23404       46.11894
C         55.34919       38.19866       46.76397
C         55.05794       39.67740       47.10067
C         53.80791       39.89135       47.90420
O         53.83391       40.72018       48.96068
O         52.74252       39.42307       47.54239
H         55.51084       39.19159       44.38297
H         57.44354       38.57670       46.42932
H         55.49662       37.63816       47.71274
H         54.48313       37.75860       46.22640
H         54.93195       40.24726       46.16980
H         55.91897       40.12373       47.64226
N         56.25710       35.79783       44.89192
C         56.62568       34.43939       44.54867
H         57.58915       34.13167       45.00495
H         55.83097       33.74236       44.88405
H         56.72416       34.36008       43.44413
H         55.38376       36.15484       44.50129
Ca        50.77504       40.81133       49.65487
O         51.05875       42.58767       47.03963
H         51.47340       43.48370       47.11046
H         50.79578       42.51355       46.08845

Ca 1.0



