%chk=holoCaM.loop1.water2.frame233.chk
%nprocshared=20
%mem=10GB
%nosave
#b3lyp/svp scf=(tight,noincore,xqc) Test 
#IOP(5/87=12) Density=Current Pop=(MK,readradii) iop(6/33=2) iop(6/42=6)

holoCaM.loop1.water2.frame233 

   0  1 
C         45.66283      104.65013       64.46869
C         45.28215      105.83579       63.64213
O         45.49196      106.95914       64.07829
H         46.11222      104.97404       65.43154
H         44.75807      104.04280       64.67798
H         46.40222      104.03608       63.91370
N         44.71999      105.65626       62.41467
C         44.34676      106.77328       61.56237
C         43.24782      107.58299       62.24016
O         42.13132      107.09620       62.35742
C         43.90386      106.24750       60.17659
C         43.62758      107.33558       59.18942
O         43.77214      108.62131       59.54202
O         43.28705      107.05447       58.05203
H         44.58397      104.69180       62.07301
H         45.25723      107.39923       61.41714
H         42.99507      105.61663       60.28456
H         44.71622      105.61833       59.75478
N         43.52594      108.80405       62.78083
C         42.53656      109.58355       63.51598
C         41.50269      110.14998       62.55703
O         40.32911      109.82568       62.66957
C         43.17628      110.76194       64.30169
C         44.28468      110.35485       65.28543
C         44.80298      111.59742       66.02756
C         46.01065      111.27246       66.91415
N         46.46336      112.46582       67.63053
H         44.49402      109.13971       62.73135
H         42.05505      108.91908       64.26915
H         42.36610      111.27325       64.86882
H         43.62309      111.50081       63.60586
H         45.12636      109.89889       64.72618
H         43.90178      109.61214       66.01787
H         43.98152      112.01631       66.64979
H         45.11635      112.36862       65.28902
H         46.84006      110.89226       66.27577
H         45.73966      110.48334       67.64900
H         47.30563      112.22604       68.20149
H         46.71882      113.22161       66.95361
H         45.70830      112.80766       68.26879
N         41.88654      111.06208       61.61611
C         40.96405      111.77111       60.73440
C         40.31238      110.89303       59.67964
O         39.40071      111.36952       59.01728
C         41.69191      112.96796       60.07002
C         42.91609      112.61092       59.24141
O         43.28835      111.32127       59.05148
O         43.58702      113.51278       58.76974
H         42.88007      111.32656       61.58614
H         40.15272      112.19244       61.37073
H         42.02754      113.64204       60.88866
H         40.97473      113.53953       59.44086
N         40.73564      109.62282       59.43776
C         40.14122      108.76244       58.43406
C         40.16272      109.37544       57.05117
O         39.09405      109.50964       56.47152
H         41.51215      109.23639       59.98450
H         39.09070      108.54243       58.72502
H         40.69091      107.79732       58.40849
N         41.33066      109.74510       56.44422
C         41.37309      110.24660       55.06772
C         42.09444      109.28288       54.13485
O         42.12582      109.54658       52.94064
C         41.97326      111.66914       54.99972
C         43.43268      111.75581       55.34793
O         43.84343      112.56392       56.33588
O         44.26213      111.15904       54.68551
H         42.21646      109.63196       56.96164
H         40.34005      110.33029       54.66815
H         41.39063      112.33671       55.67089
H         41.86447      112.05403       53.96286
N         42.69497      108.15051       54.59981
C         43.37505      107.19020       53.75583
C         44.84437      107.10270       54.08512
O         45.47519      106.17471       53.59812
H         42.68613      107.93055       55.60398
H         43.27370      107.41752       52.67278
H         42.90392      106.20019       53.93817
N         45.47989      108.04645       54.84934
C         46.89940      107.96875       55.16957
C         47.20455      108.32363       56.65947
O         46.05228      108.22469       57.45240
C         47.74822      108.85858       54.23226
C         47.76488      108.33942       52.78510
O         47.32513      110.19690       54.28256
H         44.96141      108.86769       55.18362
H         47.23206      106.92011       54.99488
H         48.80560      108.82231       54.57416
H         46.49154      110.27069       53.74813
H         46.74699      108.33498       52.34323
H         48.41886      108.98537       52.16234
H         48.17233      107.30549       52.75924
N         48.19150      107.34123       57.13622
C         48.82131      107.54433       58.44764
C         50.09901      108.36351       58.29762
O         50.95971      108.01617       57.50030
C         49.07051      106.12767       59.05950
C         47.69294      105.52929       59.46857
C         50.03310      106.15643       60.25883
C         47.74069      104.10718       60.02662
H         48.91995      107.11103       56.41897
H         48.13837      108.08132       59.14325
H         49.55160      105.48505       58.28806
H         47.02359      105.51246       58.58185
H         47.22467      106.18182       60.23949
H         50.23382      105.13232       60.63211
H         51.02075      106.56198       59.95943
H         49.61834      106.76352       61.07935
H         48.17647      103.41339       59.27880
H         48.32052      104.05853       60.97034
H         46.70617      103.77684       60.26255
N         50.30383      109.43506       59.11122
C         51.51167      110.24745       59.12085
C         52.43620      109.77340       60.23458
O         52.12195      108.79828       60.90289
C         51.13699      111.74896       59.28042
C         50.20336      112.23929       58.16334
O         50.58745      112.00341       60.55297
H         49.60348      109.63240       59.83092
H         52.06708      110.12542       58.16469
H         52.05531      112.36533       59.19775
H         49.61891      111.79473       60.53048
H         50.67959      112.09587       57.17108
H         49.24280      111.68329       58.18509
H         49.98667      113.32001       58.30274
N         53.60614      110.42238       60.48752
C         54.55041      110.02336       61.53172
C         53.86962      109.92748       62.88710
O         54.00648      108.90974       63.54976
C         55.74431      111.01334       61.61223
C         56.60888      110.97593       60.34675
O         55.27945      112.32244       61.82819
H         53.82645      111.25150       59.91862
H         54.96311      109.01689       61.29343
H         56.38558      110.69390       62.46783
H         56.03321      112.84167       62.21205
H         57.46992      111.66744       60.46434
H         57.00352      109.95059       60.18650
H         56.03689      111.28640       59.44889
N         53.12775      110.96117       63.36035
C         52.46834      110.95963       64.66285
C         51.38732      109.89343       64.72795
O         51.40110      109.10508       65.66398
C         51.91016      112.36779       64.97003
C         53.08091      113.37004       65.07396
C         52.63793      114.81164       65.32242
C         53.87568      115.72601       65.35094
N         53.50441      117.12588       65.53840
H         53.03076      111.79118       62.75792
H         53.21650      110.74579       65.46039
H         51.37054      112.35324       65.94298
H         51.19631      112.67617       64.17465
H         53.66509      113.36703       64.13148
H         53.75724      113.05105       65.89822
H         52.09003      114.88060       66.28724
H         51.96419      115.13339       64.49872
H         54.43007      115.62804       64.38977
H         54.55474      115.41084       66.17500
H         52.88847      117.44032       64.75390
H         53.01189      117.24807       66.45220
H         54.37328      117.70838       65.53843
N         50.43336      109.78660       63.75634
C         49.36663      108.77862       63.79766
C         49.90552      107.34314       63.75285
O         49.11968      106.42762       63.95528
C         48.36707      108.96555       62.62690
C         47.70714      110.35718       62.58797
C         46.82599      110.53231       61.37880
O         47.28355      110.40591       60.25542
O         45.54122      110.89793       61.52285
H         50.47650      110.45184       62.97170
H         48.81463      108.91178       64.75431
H         47.56684      108.19486       62.68647
H         48.92054      108.80429       61.68794
H         48.47576      111.14947       62.53567
H         47.11681      110.51441       63.51397
N         51.21397      107.06544       63.47467
C         51.77430      105.72947       63.43593
H         52.60449      105.66150       64.17111
H         51.02707      104.94546       63.67492
H         52.18642      105.53218       62.42367
H         51.86209      107.82689       63.26019
Ca        45.05455      110.28599       57.95284
O         46.57437      113.46646       59.36701
H         47.41344      113.95286       59.16873
H         46.01814      114.12273       59.85721
O         47.21906      112.17708       56.52676
H         46.65178      112.29808       55.72555
H         47.75760      113.00632       56.57196

Ca 1.0



