%chk=holoCaM-CaMKII.loop2.water2.frame450.chk
%nprocshared=20
%mem=10GB
%nosave
#b3lyp/svp scf=(tight,noincore,xqc) Test 
#IOP(5/87=12) Density=Current Pop=(MK,readradii) iop(6/33=2) iop(6/42=6)

holoCaM-CaMKII.loop2.water2.frame450 

   -2  1 
C         69.98049       44.61005       36.42045
C         71.31473       43.97151       36.15680
O         71.54067       43.50137       35.05259
H         69.16888       43.86798       36.27942
H         69.91934       45.00972       37.45567
H         69.83182       45.45650       35.71655
N         72.26481       43.94753       37.12905
C         73.61422       43.43853       36.92431
C         73.64905       41.94444       36.62617
O         73.18455       41.15534       37.43655
C         74.46801       43.74464       38.16909
C         75.87346       43.27260       37.99057
O         76.51891       43.64574       37.02739
O         76.41559       42.41469       38.87505
H         72.03366       44.36995       38.04208
H         74.06656       43.99893       36.07461
H         74.03089       43.26599       39.07156
H         74.48669       44.84226       38.33283
N         74.26451       41.49926       35.49203
C         74.46074       40.09549       35.14697
C         75.94587       39.73055       34.99923
O         76.22218       38.57944       34.68984
C         73.74048       39.82799       33.81879
H         74.63075       42.19844       34.83427
H         74.02202       39.43521       35.92534
H         74.17185       40.46010       33.01045
H         73.83540       38.76176       33.52248
H         72.66088       40.07000       33.91477
N         76.94603       40.65556       35.14008
C         78.34753       40.39260       34.79061
C         79.38422       40.95814       35.77951
O         80.56749       40.74735       35.54925
C         78.60965       40.94541       33.37207
C         78.39587       42.43138       33.23284
O         78.63356       42.97188       32.16549
O         77.97188       43.17701       34.27266
H         76.67939       41.61760       35.35945
H         78.52350       39.29540       34.73628
H         77.94057       40.42786       32.65111
H         79.65865       40.71049       33.08510
N         79.03796       41.66652       36.89179
C         79.99486       42.16645       37.87549
C         80.93461       43.28731       37.42730
O         81.77500       43.65208       38.23805
H         78.04719       41.78745       37.10614
H         80.60839       41.30643       38.22571
H         79.43459       42.55050       38.75516
N         80.90660       43.86354       36.18673
C         81.94516       44.80870       35.74619
C         81.88637       46.22078       36.35234
O         82.85294       46.94612       36.16190
C         82.05929       44.84858       34.20189
C         80.76750       45.16948       33.45242
N         80.95450       45.17357       32.01023
O         80.17412       46.35664       33.85935
H         80.21771       43.52479       35.50379
H         82.92101       44.38759       36.07733
H         82.36303       43.83357       33.86532
H         82.85692       45.55945       33.89915
H         81.28369       44.22669       31.71725
H         80.01135       45.29881       31.58225
N         80.82572       46.69556       37.06813
C         80.80492       48.01332       37.71112
C         79.86138       49.02076       37.06458
O         79.73564       50.11344       37.60004
H         80.00561       46.09763       37.18283
H         81.81240       48.48432       37.69873
H         80.52953       47.87142       38.77773
N         79.24586       48.77071       35.87533
C         78.46035       49.74885       35.11990
C         77.12822       49.15257       34.66679
O         76.85355       47.99406       34.94434
C         79.28498       50.19207       33.87160
C         80.53280       50.98613       34.26230
O         79.68101       49.08056       33.11021
H         79.41584       47.86817       35.42804
H         78.24381       50.65491       35.72858
H         78.69932       50.88804       33.23133
H         78.88407       48.77527       32.60631
H         81.21870       50.37870       34.88763
H         81.07728       51.29885       33.34476
H         80.24202       51.90235       34.81984
N         76.28778       49.88937       33.88252
C         75.10359       49.36077       33.21334
C         75.43841       49.23849       31.73545
O         75.89229       50.20023       31.12985
C         73.85080       50.25242       33.47861
C         73.42022       50.10063       34.96235
C         72.68947       49.86515       32.53312
C         72.21423       50.95144       35.36808
H         76.55238       50.85905       33.65252
H         74.85933       48.34092       33.57602
H         74.10985       51.31341       33.26576
H         74.27008       50.38120       35.62034
H         73.16085       49.03927       35.16185
H         72.98408       49.99718       31.47124
H         72.38210       48.81029       32.69093
H         71.81339       50.52792       32.67420
H         71.30132       50.65910       34.81004
H         71.99762       50.78704       36.44502
H         72.42445       52.02785       35.20310
N         75.20515       48.05918       31.09342
C         75.52974       47.79073       29.69965
C         74.26510       47.75766       28.86600
O         73.19648       48.01242       29.39401
C         76.29367       46.45387       29.60536
C         77.58869       46.50544       30.35983
O         77.59238       46.69575       31.69173
O         78.64571       46.36638       29.76665
H         74.74788       47.30083       31.61497
H         76.16196       48.60229       29.27630
H         76.52207       46.22142       28.54502
H         75.66885       45.62601       30.00900
N         74.32542       47.51585       27.52755
C         73.17469       47.60295       26.63599
C         72.04885       46.62141       26.97893
O         70.93507       47.09826       27.14336
C         73.63368       47.47944       25.16559
C         72.56100       47.88511       24.18155
C         72.02035       49.18553       24.22160
C         72.11189       46.98959       23.19722
C         71.04439       49.57627       23.30360
C         71.13804       47.38876       22.27436
C         70.60385       48.67955       22.32924
H         75.24955       47.33192       27.10843
H         72.77362       48.63227       26.75376
H         74.00461       46.45377       24.96484
H         74.48598       48.17469       25.00163
H         72.35459       49.90427       24.95851
H         72.51925       45.98829       23.13724
H         70.63496       50.57762       23.34607
H         70.79904       46.69879       21.51315
H         69.85184       48.98792       21.61487
N         72.21632       45.26570       27.12662
C         71.12238       44.35833       27.46723
C         70.54712       44.66951       28.84143
O         69.33454       44.63451       28.99874
C         71.76426       42.96555       27.36602
C         73.21112       43.21900       27.71884
C         73.47827       44.55253       27.01834
H         70.29194       44.38662       26.72654
H         71.25312       42.15847       27.93523
H         71.76901       42.67476       26.29101
H         73.26835       43.35882       28.81660
H         73.92095       42.40627       27.45579
H         74.32291       45.03744       27.54407
H         73.70841       44.40075       25.94283
N         71.35932       45.02602       29.86935
C         70.89509       45.34232       31.21635
C         69.96362       46.54795       31.20306
O         68.99955       46.55992       31.95476
C         72.10790       45.61196       32.13587
C         73.04950       44.38432       32.21748
C         74.29680       44.63574       33.01330
O         75.15388       43.77060       33.07166
O         74.50751       45.80957       33.63033
H         72.36244       45.11350       29.67018
H         70.35233       44.46845       31.64185
H         71.75415       45.86636       33.15987
H         72.66172       46.48254       31.73161
H         73.39520       44.08872       31.21004
H         72.50391       43.52017       32.65125
N         70.18335       47.58526       30.34660
C         69.35514       48.76898       30.25701
H         68.52568       48.76354       30.99260
H         69.98447       49.66696       30.43483
H         68.92620       48.83797       29.23424
H         70.96952       47.53088       29.69608
Ca        78.18026       45.39093       34.19937
O         77.48395       46.29459       37.33394
H         77.96994       45.49866       37.00528
H         77.61711       46.27631       38.31396
O         74.76230       46.72025       36.48553
H         74.36800       47.10017       37.30904
H         74.19370       47.07274       35.75925

Ca 1.0



