%chk=holoCaM-CaMKII.loop1.water2.frame489.chk
%nprocshared=20
%mem=10GB
%nosave
#b3lyp/svp scf=(tight,noincore,xqc) Test 
#IOP(5/87=12) Density=Current Pop=(MK,readradii) iop(6/33=2) iop(6/42=6)

holoCaM-CaMKII.loop1.water2.frame489 

   0  1 
C         85.10763       94.99532       96.33533
C         84.31210       95.87465       97.25378
O         83.22211       96.28373       96.88396
H         86.07396       94.69689       96.79505
H         84.52783       94.07701       96.10703
H         85.32000       95.54117       95.39259
N         84.79404       96.20093       98.48319
C         84.06824       97.04648       99.42209
C         83.92410       98.45227       98.84882
O         84.93097       99.04144       98.47998
C         84.82033       97.07385      100.76937
C         84.03930       97.69771      101.88882
O         82.90664       98.11714      101.72475
O         84.58899       97.75047      103.10942
H         85.70814       95.81418       98.76798
H         83.07329       96.58316       99.61245
H         85.79349       97.59870      100.65234
H         85.02785       96.02962      101.08713
N         82.70194       99.05378       98.76033
C         82.48952      100.37612       98.16885
C         82.19695      101.45554       99.20304
O         82.18143      102.61396       98.80846
C         81.33519      100.30649       97.14015
C         81.66271       99.48902       95.87896
C         82.64195      100.24390       94.95902
C         82.90959       99.52786       93.62661
N         83.65809       98.28383       93.80552
H         81.88775       98.55282       99.13834
H         83.42122      100.72687       97.67949
H         81.03148      101.32459       96.81153
H         80.45509       99.85429       97.64973
H         80.71623       99.34970       95.31164
H         82.04071       98.48779       96.16507
H         83.60981      100.43194       95.46637
H         82.18344      101.22778       94.71418
H         83.51037      100.21199       92.98652
H         81.95014       99.32644       93.09987
H         83.86789       97.87904       92.86459
H         84.56204       98.47832       94.29487
H         83.09974       97.58845       94.34794
N         81.98333      101.18797      100.52397
C         81.82968      102.23774      101.53359
C         82.86518      102.11529      102.65936
O         82.81359      102.91765      103.58118
C         80.36973      102.31143      102.03513
C         79.84701      101.09836      102.74173
O         78.69874      101.09389      103.15477
O         80.61964      100.01939      102.92983
H         81.92766      100.21029      100.83062
H         82.00722      103.23697      101.07903
H         79.71479      102.50565      101.15694
H         80.27346      103.17889      102.72419
N         83.88342      101.20051      102.61714
C         84.97288      101.16322      103.58801
C         84.62131      100.63117      104.96840
O         85.50815      100.61618      105.81060
H         83.97057      100.57323      101.80656
H         85.40842      102.18172      103.67413
H         85.76970      100.49408      103.19481
N         83.38437      100.15341      105.28062
C         83.02371       99.60610      106.59520
C         83.71105       98.27697      106.96741
O         83.37953       97.74220      108.01685
C         81.48069       99.50220      106.71893
C         80.77258       98.66365      105.68590
O         79.55350       98.63135      105.68861
O         81.44427       98.01357      104.71755
H         82.65176      100.21878      104.56335
H         83.31435      100.34445      107.37578
H         81.07708      100.53438      106.62024
H         81.20885       99.13803      107.73350
N         84.70023       97.70551      106.21629
C         85.39045       96.47375      106.58816
C         84.57550       95.21060      106.37454
O         85.09835       94.13738      106.64341
H         85.04720       98.18273      105.38257
H         85.74067       96.54591      107.64095
H         86.29005       96.36753      105.94364
N         83.31178       95.24639      105.87342
C         82.49201       94.07221      105.59908
C         82.09050       94.07491      104.13609
O         81.74374       95.12703      103.62505
C         81.23881       94.08395      106.50672
C         81.62082       93.87147      107.97404
O         80.53965       95.29749      106.39212
H         82.88737       96.15805      105.66300
H         83.03363       93.12249      105.81013
H         80.57419       93.22986      106.23352
H         79.95535       95.22207      105.59513
H         80.70644       93.85692      108.60419
H         82.14125       92.89659      108.09577
H         82.28812       94.68260      108.33425
N         82.04830       92.92371      103.41116
C         81.60564       92.87235      102.01909
C         80.26156       92.17535      101.97831
O         80.14983       91.07535      102.50591
C         82.63701       92.12863      101.12055
C         84.04478       92.76165      101.24760
C         82.15683       92.14477       99.64980
C         85.12365       92.00155      100.47005
H         82.28234       92.03374      103.87984
H         81.48740       93.89900      101.60274
H         82.70262       91.07207      101.46474
H         84.35211       92.74563      102.31506
H         84.02148       93.81867      100.90702
H         82.82819       91.56070       98.99138
H         81.15645       91.67883       99.55160
H         82.09788       93.18839       99.26965
H         86.11375       92.46470      100.66133
H         85.15908       90.94074      100.79932
H         84.94593       92.04099       99.37673
N         79.20708       92.73696      101.32058
C         77.90264       92.09199      101.22099
C         77.71778       91.48144       99.84426
O         78.55870       91.66405       98.97375
C         76.75857       93.08645      101.56045
C         76.86660       93.64302      102.98680
O         76.69182       94.12884      100.61689
H         79.35857       93.61983      100.81181
H         77.84739       91.24215      101.93607
H         75.78916       92.54690      101.51370
H         77.38484       94.80105      100.84143
H         76.00953       94.32207      103.18550
H         76.84033       92.81492      103.72501
H         77.81025       94.21380      103.11816
N         76.63483       90.69467       99.59762
C         76.37484       90.04750       98.31382
C         76.20743       91.09795       97.23144
O         76.73904       90.93246       96.14404
C         75.11657       89.15146       98.41132
C         74.87496       88.36360       97.12016
O         75.28637       88.22315       99.45515
H         75.96603       90.54462      100.36883
H         77.23216       89.38206       98.06211
H         74.22020       89.79232       98.59734
H         74.67635       88.48484      100.19364
H         73.97665       87.72144       97.23606
H         74.70760       89.04391       96.25993
H         75.74840       87.71139       96.90069
N         75.50483       92.23270       97.49778
C         75.34940       93.34337       96.56570
C         76.70955       93.89472       96.15454
O         76.99088       93.94984       94.96520
C         74.48039       94.42610       97.24624
C         74.10892       95.61372       96.34913
C         73.17395       96.55816       97.12213
C         72.70995       97.74466       96.27122
N         71.79910       98.59960       97.03471
H         75.07951       92.32048       98.43403
H         74.80585       92.98318       95.66341
H         74.99390       94.80118       98.15941
H         73.53171       93.93752       97.56299
H         73.58401       95.23705       95.44415
H         75.02458       96.16044       96.03499
H         73.69971       96.93945       98.02546
H         72.27529       95.98942       97.44925
H         72.18307       97.36797       95.36645
H         73.59144       98.34000       95.94623
H         72.28365       98.97888       97.88068
H         71.48958       99.39773       96.43485
H         70.95606       98.05454       97.33017
N         77.60611       94.31618       97.09357
C         78.91054       94.89778       96.76179
C         79.86590       93.90163       96.10397
O         80.92399       94.32498       95.65821
C         79.58100       95.48845       98.02645
C         78.72965       96.61016       98.64939
C         79.34071       97.15419       99.90660
O         79.59822       98.34339       99.99488
O         79.56511       96.34766      100.96201
H         77.32716       94.24413       98.08144
H         78.74055       95.73180       96.04468
H         80.57422       95.91482       97.76222
H         79.74107       94.67141       98.76212
H         77.72218       96.23863       98.91605
H         78.60780       97.42835       97.90600
N         79.58120       92.57344       96.00842
C         80.46548       91.62891       95.36121
H         81.45117       91.61439       95.87152
H         80.02575       90.60867       95.40746
H         80.59843       91.90475       94.29346
H         78.71736       92.20582       96.41221
Ca        80.35224       97.25510      102.87555
O         77.74364       96.43757      104.76796
H         77.52925       96.89601      105.61848
H         76.90192       96.47352      104.24932
O         77.42670       98.25866      102.16169
H         77.29598       98.76527      103.00170
H         76.59017       98.39752      101.65134

Ca 1.0



