%chk=holoCaM-CaMKII.loop2.water1.frame382.chk
%nprocshared=20
%mem=10GB
%nosave
#b3lyp/svp scf=(tight,noincore,xqc) Test 
#IOP(5/87=12) Density=Current Pop=(MK,readradii) iop(6/33=2) iop(6/42=6)

holoCaM-CaMKII.loop2.water1.frame382 

   -2  1 
C         45.43304       74.08849       57.75098
C         44.13328       73.76260       58.43585
O         44.08578       72.84197       59.23640
H         46.24819       73.41533       58.09155
H         45.31916       73.98995       56.65111
H         45.72451       75.13565       57.98619
N         43.03474       74.52179       58.18212
C         41.74590       74.35725       58.85291
C         41.04072       73.05623       58.48716
O         40.99268       72.69809       57.31895
C         40.84729       75.55339       58.52413
C         39.50270       75.48229       59.19938
O         39.33482       75.43664       60.54611
O         38.50741       75.46614       58.49358
H         43.14657       75.30298       57.51540
H         41.90162       74.40547       59.94287
H         40.70011       75.59612       57.42045
H         41.35423       76.48951       58.83759
N         40.39242       72.35151       59.46171
C         39.62921       71.12763       59.24918
C         38.16789       71.24223       59.70472
O         37.44280       70.27133       59.53641
C         40.30181       70.01044       60.05403
H         40.43722       72.70776       60.42011
H         39.63728       70.85046       58.17323
H         39.77715       69.04302       59.90768
H         41.35840       69.89331       59.73446
H         40.28849       70.26087       61.13910
N         37.67702       72.35152       60.33584
C         36.33536       72.44089       60.91032
C         35.55161       73.62521       60.33788
O         34.46032       73.39699       59.83401
C         36.42969       72.39444       62.45761
C         37.45176       73.29501       63.09318
O         37.33905       74.50114       63.04081
O         38.49244       72.76107       63.76183
H         38.29596       73.15226       60.49583
H         35.73367       71.53733       60.66090
H         36.73880       71.35955       62.72353
H         35.42945       72.56645       62.91093
N         36.04463       74.89730       60.33321
C         35.35169       76.04182       59.74517
C         35.18997       77.20885       60.70603
O         34.69375       78.24240       60.28072
H         36.98010       75.06389       60.71196
H         34.34917       75.76131       59.35648
H         35.95731       76.40063       58.88628
N         35.57743       77.12658       62.01027
C         35.44159       78.20838       62.98316
C         36.34374       79.42321       62.72101
O         36.25801       80.36741       63.49453
C         35.64426       77.64875       64.41517
C         37.00650       77.07602       64.72327
N         37.22773       76.51100       65.93144
O         37.90396       77.10205       63.89593
H         35.92201       76.22766       62.35243
H         34.38683       78.56060       62.95241
H         34.90132       76.83405       64.56469
H         35.42586       78.44433       65.15862
H         36.47822       76.46458       66.63617
H         38.14329       76.10893       66.16483
N         37.19477       79.50780       61.65266
C         37.97542       80.70477       61.35434
C         39.16303       80.94426       62.27315
O         39.82690       81.95441       62.08975
H         37.24465       78.73967       60.97178
H         37.29831       81.58775       61.36590
H         38.38639       80.61888       60.32569
N         39.50960       80.06959       63.25960
C         40.63573       80.26041       64.17002
C         41.59913       79.08972       64.08873
O         41.15621       77.94938       64.06243
C         40.12524       80.40139       65.62012
C         39.26434       81.65486       65.78168
O         39.37313       79.27793       66.00499
H         38.94314       79.22637       63.39416
H         41.19636       81.19390       63.93873
H         41.00040       80.52955       66.30203
H         40.01553       78.58798       66.31614
H         38.35853       81.59666       65.14232
H         38.94654       81.75703       66.84015
H         39.84650       82.55900       65.50023
N         42.94728       79.30122       64.12559
C         43.91117       78.20350       64.15079
C         43.68404       77.38696       65.42291
O         43.72698       77.94902       66.50894
C         45.39863       78.69482       64.11336
C         45.72696       79.73317       63.00361
C         46.35209       77.48596       63.98729
C         45.53544       79.25151       61.56576
H         43.28232       80.27195       64.18092
H         43.75052       77.57993       63.24261
H         45.61945       79.20858       65.07534
H         46.78799       80.04667       63.12142
H         45.12210       80.64941       63.14511
H         46.23456       76.79337       64.84066
H         46.15037       76.90942       63.05836
H         47.40931       77.82283       63.97330
H         44.48228       78.95750       61.38354
H         45.79424       80.08228       60.87463
H         46.21030       78.40269       61.33420
N         43.48252       76.04517       65.35358
C         43.31083       75.17145       66.51409
C         44.63617       74.48981       66.82683
O         45.57522       74.71508       66.08710
C         42.16034       74.19621       66.19031
C         40.85504       74.95292       66.15247
O         40.16484       75.24012       65.01746
O         40.40719       75.36163       67.21231
H         43.53772       75.60205       64.42859
H         43.07220       75.76306       67.42645
H         42.07425       73.39878       66.96144
H         42.36230       73.70004       65.21802
N         44.84351       73.73646       67.95105
C         46.17795       73.22198       68.28397
C         46.67663       72.21675       67.24506
O         47.75312       72.45674       66.71917
C         46.28332       72.63860       69.71519
C         47.70121       72.17059       69.98923
C         48.75194       73.09842       70.11694
C         47.98961       70.79677       70.08394
C         50.06183       72.65845       70.33828
C         49.30275       70.36181       70.29292
C         50.33743       71.29145       70.42213
H         44.06413       73.59316       68.61190
H         46.87594       74.09157       68.28668
H         45.58946       71.79929       69.85341
H         45.99447       73.39768       70.47363
H         48.55799       74.16123       70.04828
H         47.20316       70.06087       69.97355
H         50.86542       73.37693       70.43964
H         49.51966       69.30276       70.34956
H         51.35297       70.95235       70.58435
N         45.99002       71.08125       66.88461
C         46.45188       70.14477       65.85946
C         46.89340       70.83847       64.58611
O         47.93532       70.51983       64.03175
C         45.19533       69.30719       65.55948
C         44.52885       69.25437       66.90737
C         44.67978       70.69485       67.37919
H         47.26241       69.50826       66.27784
H         44.49424       69.87347       64.90242
H         45.39768       68.32550       65.08194
H         43.48424       68.87668       66.91486
H         45.15267       68.60083       67.55986
H         43.91655       71.36885       66.93138
H         44.57453       70.67426       68.47280
N         46.10995       71.82441       64.08839
C         46.34123       72.55249       62.84920
C         47.64843       73.32085       62.90508
O         48.43948       73.21780       61.97941
C         45.15650       73.50439       62.60065
C         43.83345       72.71257       62.51304
C         42.65073       73.58994       62.35456
O         41.54461       73.08383       62.40972
O         42.78097       74.92205       62.19453
H         45.28939       72.07454       64.65731
H         46.36528       71.84361       61.99168
H         45.31242       74.06494       61.65274
H         45.09522       74.23636       63.43374
H         43.63392       72.14314       63.43910
H         43.86596       71.98395       61.67677
N         47.94868       74.08579       63.98898
C         49.16797       74.84568       64.14989
H         49.81352       74.80216       63.25036
H         48.91183       75.90537       64.35578
H         49.73103       74.44751       65.02068
H         47.29356       74.10449       64.76888
Ca        40.12428       75.31269       62.70906
O         40.08218       78.13568       61.01654
H         41.02406       77.92698       60.79725
H         39.66355       78.35383       60.14623

Ca 1.0



