%chk=holoCaM.loop2.water3.frame463.chk
%nprocshared=20
%mem=10GB
%nosave
#b3lyp/svp scf=(tight,noincore,xqc) Test 
#IOP(5/87=12) Density=Current Pop=(MK,readradii) iop(6/33=2) iop(6/42=6)

holoCaM.loop2.water3.frame463 

   -2  1 
C         18.11988       96.36182       58.67384
C         18.28349       96.88167       57.27624
O         19.39579       97.22430       56.90258
H         17.06446       96.08811       58.88479
H         18.75352       95.46132       58.81291
H         18.43121       97.14445       59.39680
N         17.21118       96.96351       56.43970
C         17.30480       97.46410       55.07314
C         17.75842       98.92192       55.07870
O         17.01114       99.79008       55.50671
C         15.94740       97.25172       54.37215
C         15.87219       97.83327       53.00070
O         14.86621       98.66614       52.69996
O         16.68975       97.54251       52.14916
H         16.29591       96.63911       56.79010
H         18.05832       96.84886       54.53081
H         15.13217       97.70435       54.97866
H         15.75951       96.15717       54.30624
N         19.03201       99.23050       54.69468
C         19.62203      100.56128       54.82830
C         19.18697      101.56665       53.76353
O         19.50022      102.73628       53.93672
C         21.15612      100.45696       54.81769
H         19.64717       98.44250       54.45983
H         19.33488      100.94999       55.82969
H         21.52540      100.09756       53.83563
H         21.62055      101.44454       55.01978
H         21.49486       99.74620       55.60234
N         18.51794      101.20490       52.62856
C         18.09602      102.16794       51.59925
C         16.58850      102.16479       51.38825
O         16.12006      102.90189       50.53106
C         18.87607      101.95899       50.27679
C         18.76565      100.60274       49.64077
O         17.98217       99.64992       50.16980
O         19.46544      100.33940       48.67663
H         18.31347      100.20720       52.48134
H         18.34754      103.20487       51.91244
H         19.95198      102.12167       50.50577
H         18.57393      102.73036       49.53406
N         15.75385      101.42357       52.17145
C         14.30607      101.48573       52.06356
C         13.72398      100.83796       50.82001
O         12.50786      100.88062       50.69590
H         16.14019      100.86049       52.94093
H         13.98547      102.54800       52.12397
H         13.86095      100.96410       52.93818
N         14.47959      100.21809       49.86203
C         13.86798       99.62226       48.67504
C         12.95336       98.46141       49.04906
O         11.84540       98.38862       48.53817
C         14.89743       99.21443       47.59755
C         15.61059       97.91196       47.84060
N         15.46033       96.88898       46.96446
O         16.32817       97.77580       48.81720
H         15.50272      100.19003       49.95620
H         13.27317      100.42334       48.18006
H         15.63581      100.03290       47.45191
H         14.33767       99.11369       46.64238
H         14.85803       96.98203       46.13287
H         15.94917       95.99827       47.10691
N         13.34085       97.56402       50.00435
C         12.49906       96.48690       50.50264
C         13.21364       95.15041       50.61141
O         12.59531       94.22944       51.12811
H         14.24423       97.70946       50.47338
H         11.57531       96.37124       49.89503
H         12.19282       96.76074       51.53484
N         14.49481       94.95184       50.17547
C         15.21508       93.68598       50.33757
C         16.53087       93.90973       51.07531
O         16.86930       95.04697       51.36402
C         15.48743       93.05128       48.95387
C         14.18638       92.80175       48.18352
O         16.32674       93.89031       48.20775
H         14.98992       95.71642       49.69811
H         14.60999       92.96728       50.93351
H         15.99262       92.07141       49.11162
H         16.69433       93.34887       47.46169
H         14.41412       92.32172       47.20865
H         13.52071       92.12822       48.76316
H         13.65489       93.75680       47.98452
N         17.33916       92.85999       51.39525
C         18.65101       93.00940       52.02164
C         19.74060       92.44488       51.11890
O         19.62984       91.32646       50.63622
C         18.71843       92.38685       53.44800
C         18.22998       90.91770       53.49721
C         17.94678       93.27805       54.44242
C         18.55144       90.22256       54.82005
H         17.02125       91.90620       51.16598
H         18.89671       94.08375       52.16693
H         19.78781       92.41861       53.75909
H         18.73503       90.32480       52.70963
H         17.13422       90.87882       53.31736
H         18.07882       92.93245       55.48673
H         18.34187       94.31667       54.40971
H         16.86458       93.30399       54.19828
H         18.07739       90.72510       55.68611
H         18.18318       89.17647       54.78929
H         19.64952       90.19473       54.96051
N         20.87609       93.17183       50.92520
C         22.05847       92.71870       50.21171
C         23.03796       92.14968       51.23713
O         22.70717       92.13448       52.41582
C         22.59533       93.92663       49.40203
C         23.76449       93.63043       48.51107
O         23.66812       92.79573       47.62620
O         24.91410       94.31674       48.65591
H         20.97240       94.05652       51.42952
H         21.79154       91.89483       49.51408
H         22.86645       94.74729       50.10352
H         21.77858       94.29830       48.74748
N         24.22912       91.59642       50.87151
C         25.10230       90.91856       51.82633
C         25.52624       91.81407       52.98638
O         25.39129       91.35637       54.11119
C         26.29962       90.24252       51.12406
C         27.11734       89.39770       52.07851
C         26.52103       88.33914       52.79245
C         28.48752       89.65328       52.25854
C         27.27821       87.56361       53.67361
C         29.24312       88.86774       53.13562
C         28.63852       87.82618       53.84425
H         24.49634       91.59141       49.87810
H         24.50292       90.08915       52.26099
H         26.93991       90.99739       50.62943
H         25.90832       89.57222       50.32856
H         25.47031       88.10987       52.67408
H         28.97318       90.45618       51.71847
H         26.80900       86.75693       54.22241
H         30.29872       89.06626       53.26626
H         29.22371       87.22072       54.52410
N         26.01122       93.08716       52.84107
C         26.28733       93.97117       53.96744
C         25.07762       94.13125       54.87342
O         25.20514       94.01565       56.08427
C         26.60103       95.32497       53.30548
C         27.18592       94.89932       51.98181
C         26.24662       93.76486       51.58531
H         27.17620       93.59281       54.52032
H         25.66074       95.86603       53.05127
H         27.22740       96.00491       53.92221
H         27.28025       95.70847       51.22675
H         28.19359       94.46810       52.18025
H         25.27545       94.15376       51.21000
H         26.75079       93.14902       50.82034
N         23.86224       94.41907       54.32155
C         22.66104       94.71852       55.09733
C         22.17587       93.51163       55.89977
O         21.33001       93.68413       56.76607
C         21.52223       95.25770       54.18234
C         21.99681       96.42720       53.28052
C         20.93814       97.02122       52.39583
O         20.25993       96.29074       51.49433
O         20.74712       98.22337       52.42049
H         23.81897       94.45967       53.29679
H         22.93325       95.53111       55.80708
H         20.67562       95.59528       54.81974
H         21.15743       94.43072       53.54819
H         22.78515       96.09682       52.58218
H         22.42060       97.22703       53.92600
N         22.65550       92.25789       55.66037
C         22.27445       91.09792       56.43374
H         21.17899       90.95434       56.40190
H         22.76848       90.19157       56.01675
H         22.60118       91.22193       57.48649
H         23.31192       92.10422       54.89268
Ca        18.81422       97.57309       50.35079
O         21.54548       98.00842       48.99514
H         21.49181       97.62400       48.08441
H         22.12299       97.37971       49.49615
O         19.12174       95.04503       48.78630
H         19.53318       94.99063       47.88796
H         18.86530       94.11321       48.99616
O         18.69480       97.46557       46.84079
H         19.01107       98.02114       47.59521
H         18.22460       98.10268       46.24710

Ca 1.0



