%chk=holoCaM-CaMKII.loop2.water2.frame475.chk
%nprocshared=20
%mem=10GB
%nosave
#b3lyp/svp scf=(tight,noincore,xqc) Test 
#IOP(5/87=12) Density=Current Pop=(MK,readradii) iop(6/33=2) iop(6/42=6)

holoCaM-CaMKII.loop2.water2.frame475 

   -2  1 
C         73.24020       67.53296       70.55040
C         73.42970       68.66213       71.53106
O         74.07453       68.47080       72.55005
H         72.65300       67.85766       69.66294
H         74.22972       67.18227       70.18753
H         72.70408       66.68916       71.02967
N         72.90833       69.88650       71.25746
C         73.10460       71.08213       72.07383
C         72.47364       70.99487       73.46078
O         71.29092       70.70094       73.56244
C         72.50459       72.28185       71.31996
C         72.67871       73.55251       72.08204
O         73.91062       73.95017       72.44844
O         71.70128       74.21368       72.39255
H         72.38397       69.98725       70.37360
H         74.19590       71.27127       72.17499
H         71.42170       72.10854       71.13153
H         73.01916       72.38913       70.34154
N         73.20361       71.34692       74.56549
C         72.66457       71.41215       75.92256
C         72.76615       72.81178       76.56143
O         72.27839       72.95363       77.67439
C         73.41941       70.40013       76.79502
H         74.19169       71.59656       74.43652
H         71.59008       71.12908       75.91850
H         73.31818       69.37848       76.37059
H         74.50088       70.65712       76.84049
H         73.01449       70.38757       77.82959
N         73.41493       73.86707       75.97228
C         73.65323       75.15300       76.65601
C         73.48159       76.40784       75.77228
O         73.66414       77.49994       76.29331
C         75.06496       75.14185       77.28334
C         76.11896       74.73674       76.30600
O         76.96100       73.91294       76.62796
O         75.98591       75.05901       75.01287
H         73.88844       73.70490       75.07599
H         72.94414       75.27900       77.50283
H         75.08877       74.41345       78.12361
H         75.31259       76.13637       77.71118
N         73.11440       76.35373       74.46124
C         72.86606       77.53160       73.62874
C         74.08332       78.36396       73.22344
O         73.87579       79.37578       72.56866
H         72.90533       75.44224       74.05727
H         72.13738       78.18529       74.15622
H         72.38730       77.19942       72.68208
N         75.36370       78.03196       73.55676
C         76.53355       78.86484       73.23863
C         76.92325       78.91914       71.74329
O         77.91100       79.57174       71.43460
C         77.73450       78.43836       74.12533
C         78.30818       77.08306       73.82085
N         79.30927       76.58021       74.57862
O         77.87616       76.43309       72.88779
H         75.50579       77.19903       74.13418
H         76.30471       79.90248       73.56734
H         77.39736       78.44514       75.18559
H         78.55403       79.18167       74.02588
H         79.68111       77.11040       75.37972
H         79.70863       75.65397       74.36879
N         76.19575       78.30599       70.76128
C         76.48918       78.41813       69.33170
C         77.61073       77.52908       68.80205
O         77.82873       77.55168       67.59965
H         75.32535       77.82642       71.01462
H         76.67266       79.48289       69.06790
H         75.58103       78.09829       68.77596
N         78.34101       76.70906       69.60733
C         79.37586       75.78377       69.13560
C         79.05663       74.35307       69.56327
O         78.06520       74.12075       70.23680
C         80.75978       76.21962       69.69536
C         81.26738       77.47640       68.98869
O         80.69485       76.45998       71.07845
H         78.15962       76.73174       70.61126
H         79.43443       75.76979       68.02475
H         81.53908       75.45260       69.49111
H         80.59080       75.57955       71.52355
H         81.38740       77.27080       67.90176
H         80.56772       78.32610       69.12237
H         82.26352       77.75755       69.39294
N         79.90781       73.34175       69.22087
C         79.76604       71.95832       69.66053
C         80.84832       71.71242       70.68990
O         82.00852       72.00440       70.43595
C         79.88996       70.97031       68.46587
C         78.77415       71.23172       67.42527
C         79.82883       69.50839       68.96943
C         78.96397       70.43848       66.12998
H         80.74962       73.56993       68.67247
H         78.77524       71.78920       70.13896
H         80.87788       71.13848       67.98268
H         78.77665       72.30533       67.14227
H         77.78159       70.99247       67.86538
H         80.64261       69.30365       69.69184
H         78.85592       69.30501       69.46704
H         79.96920       68.78079       68.14781
H         78.15372       70.69651       65.41704
H         79.93953       70.70004       65.66716
H         78.92220       69.34466       66.30030
N         80.52149       71.15712       71.88481
C         81.47222       70.95534       72.96900
C         81.98853       69.54926       72.90308
O         81.56288       68.79239       72.04644
C         80.77083       71.17058       74.32569
C         80.06601       72.48402       74.39307
O         79.21321       72.80052       73.40501
O         80.20499       73.22604       75.35219
H         79.55724       70.82568       72.02180
H         82.32611       71.66108       72.86842
H         81.47326       71.06350       75.18072
H         79.98511       70.39228       74.43303
N         82.93706       69.12472       73.77240
C         83.44843       67.77018       73.72002
C         82.34812       66.75422       74.05125
O         82.11316       65.90970       73.19628
C         84.74299       67.66007       74.55056
C         85.33882       66.27810       74.52870
C         85.69126       65.65848       73.31560
C         85.56396       65.60082       75.73745
C         86.25340       64.37962       73.31758
C         86.13286       64.32611       75.73468
C         86.47607       63.71487       74.52617
H         83.32626       69.79243       74.45523
H         83.77540       67.57862       72.67307
H         84.59229       67.99165       75.58976
H         85.48553       68.36549       74.11652
H         85.53417       66.15907       72.36875
H         85.30577       66.06234       76.68282
H         86.51975       63.90609       72.38162
H         86.30886       63.81462       76.67136
H         86.91672       62.72727       74.52677
N         81.60481       66.74350       75.20849
C         80.58554       65.73406       75.49433
C         79.46403       65.66348       74.46871
O         78.80478       64.63775       74.38142
C         80.00890       66.16470       76.84937
C         81.19912       66.83848       77.49130
C         81.74892       67.65387       76.32630
H         81.11050       64.75573       75.56377
H         79.24900       66.96758       76.69884
H         79.54277       65.34343       77.43477
H         80.97510       67.42990       78.40401
H         81.94246       66.04774       77.74767
H         81.13070       68.55914       76.13386
H         82.77922       67.93334       76.57691
N         79.13876       66.75355       73.72072
C         78.06281       66.76399       72.73507
C         78.48559       65.94971       71.52841
O         77.77959       65.02561       71.15044
C         77.71771       68.21738       72.34138
C         77.23117       69.00596       73.57905
C         76.92723       70.44887       73.31032
O         76.58317       71.24107       74.34105
O         77.01426       70.92294       72.18990
H         79.67083       67.62258       73.87207
H         77.13334       66.33730       73.17709
H         76.91196       68.21667       71.57323
H         78.61403       68.70817       71.90959
H         78.01027       68.99324       74.36550
H         76.32079       68.52488       73.99633
N         79.66318       66.22686       70.90146
C         80.18456       65.48733       69.77232
H         81.14936       65.01801       70.06209
H         79.49199       64.69164       69.43031
H         80.37183       66.18711       68.93117
H         80.24665       66.98872       71.26167
Ca        77.44476       74.02129       73.75560
O         75.49337       75.36754       70.69097
H         74.58963       75.64019       70.39258
H         75.51894       74.39247       70.53489
O         75.89365       72.03484       69.47445
H         75.14133       72.20201       68.85383
H         75.53062       71.39155       70.13169

Ca 1.0



