%chk=holoCaM.loop2.water1.frame308.chk
%nprocshared=20
%mem=10GB
%nosave
#b3lyp/svp scf=(tight,noincore,xqc) Test 
#IOP(5/87=12) Density=Current Pop=(MK,readradii) iop(6/33=2) iop(6/42=6)

holoCaM.loop2.water1.frame308 

   -2  1 
C         17.67215       37.73327       46.12114
C         17.41917       37.56406       44.65029
O         17.62561       38.50521       43.89775
H         18.73619       38.01604       46.27371
H         17.01720       38.52320       46.53843
H         17.49187       36.78664       46.67520
N         17.02031       36.35898       44.16279
C         16.93220       36.06821       42.73979
C         15.82475       36.84694       42.03341
O         14.68247       36.76752       42.46315
C         16.75692       34.54932       42.53679
C         17.03792       34.22294       41.11317
O         16.21221       33.65821       40.41952
O         18.21683       34.61847       40.60126
H         16.87678       35.58646       44.83247
H         17.91663       36.34102       42.30528
H         15.74714       34.20800       42.85641
H         17.52064       34.00915       43.13633
N         16.09771       37.59387       40.91680
C         15.10042       38.39343       40.20524
C         14.86676       37.96862       38.74978
O         13.96502       38.53291       38.14502
C         15.54344       39.86192       40.23641
H         17.06335       37.61668       40.56877
H         14.11889       38.31530       40.72038
H         14.79279       40.51611       39.74377
H         15.66916       40.20210       41.28605
H         16.51630       39.98079       39.70908
N         15.62639       37.03146       38.10377
C         15.41490       36.65053       36.69754
C         15.21517       35.13461       36.51183
O         15.05270       34.70702       35.37736
C         16.55427       37.23314       35.82020
C         17.90740       36.81499       36.29238
O         18.20276       35.51487       36.34683
O         18.68894       37.63589       36.74510
H         16.41916       36.60312       38.60163
H         14.48774       37.11770       36.29957
H         16.49397       38.34272       35.87419
H         16.41732       36.93854       34.75753
N         15.13900       34.27485       37.57182
C         14.80068       32.85520       37.46439
C         15.84368       31.93583       36.83750
O         15.55685       30.75080       36.73939
H         15.20522       34.66051       38.51926
H         13.84756       32.76080       36.89914
H         14.61463       32.46240       38.48759
N         17.04999       32.37459       36.37961
C         18.01000       31.50754       35.68747
C         18.76377       30.51966       36.59492
O         19.59041       29.78466       36.07192
C         18.97463       32.35751       34.81721
C         19.94216       33.25024       35.54938
N         20.77105       34.05991       34.85359
O         19.98490       33.25752       36.76454
H         17.24664       33.37558       36.43336
H         17.44215       30.90946       34.93964
H         18.35290       32.99849       34.15373
H         19.56988       31.67936       34.16895
H         20.74580       34.08016       33.82425
H         21.43398       34.67497       35.34633
N         18.52209       30.40611       37.93650
C         19.18684       29.42289       38.79244
C         20.61409       29.77757       39.19623
O         21.20109       29.01679       39.95198
H         17.78210       30.97531       38.36798
H         19.14764       28.41986       38.31259
H         18.61560       29.35129       39.74305
N         21.22383       30.91789       38.76881
C         22.55636       31.36120       39.17049
C         22.49642       32.76696       39.74958
O         21.94702       33.65187       39.11058
C         23.51012       31.37261       37.95225
C         23.85142       29.95640       37.49438
O         22.95058       32.08089       36.87365
H         20.71792       31.52128       38.11958
H         23.00522       30.68335       39.93062
H         24.48277       31.83195       38.25460
H         23.20174       33.03456       36.98147
H         24.56405       30.00357       36.64368
H         24.34009       29.39899       38.32324
H         22.94021       29.41022       37.17504
N         23.12502       33.06391       40.92356
C         23.26540       34.43338       41.42195
C         24.01518       35.27021       40.38687
O         25.11169       34.89692       39.99231
C         24.00284       34.45969       42.80578
C         23.11011       33.78932       43.88764
C         24.35931       35.90301       43.22530
C         23.73800       33.73807       45.28423
H         23.58428       32.29826       41.43955
H         22.25908       34.87644       41.58385
H         24.96196       33.90245       42.71402
H         22.88950       32.74420       43.58814
H         22.14355       34.33526       43.96408
H         25.03066       36.37356       42.48119
H         23.44512       36.51876       43.34145
H         24.93344       35.92150       44.17159
H         23.88946       34.75416       45.70258
H         23.05126       33.20657       45.97596
H         24.70758       33.19890       45.25554
N         23.49519       36.46109       39.96826
C         24.19005       37.39916       39.09025
C         24.78759       38.50867       39.93883
O         24.61722       38.47017       41.14450
C         23.21006       37.98998       38.05275
C         22.58939       36.94538       37.17005
O         21.79091       35.99914       37.69564
O         22.77211       36.97566       35.96369
H         22.61454       36.78053       40.39141
H         25.03238       36.89630       38.56623
H         23.75328       38.71586       37.41122
H         22.39331       38.53740       38.57379
N         25.54612       39.50615       39.40436
C         26.16416       40.54193       40.23073
C         25.14940       41.44780       40.94031
O         25.28831       41.58610       42.14701
C         27.20582       41.36111       39.44656
C         27.94777       42.31805       40.36209
C         28.64799       41.84233       41.49180
C         27.93792       43.69821       40.10268
C         29.30274       42.73121       42.34744
C         28.60578       44.58284       40.95676
C         29.28235       44.10056       42.08036
H         25.73576       39.49559       38.38972
H         26.74515       40.00835       41.01380
H         26.71380       41.90394       38.61265
H         27.94818       40.66069       39.00526
H         28.68414       40.78656       41.72546
H         27.41386       44.09055       39.24082
H         29.82497       42.35669       43.21920
H         28.59554       45.64454       40.74990
H         29.79189       44.78692       42.74419
N         24.09143       42.07277       40.31841
C         23.11466       42.90781       41.02616
C         22.23846       42.13164       42.01247
O         21.38004       42.74353       42.63368
C         22.29904       43.54159       39.89335
C         22.32455       42.45784       38.84112
C         23.77684       41.99153       38.90654
H         23.61483       43.72322       41.59365
H         21.29379       43.92054       40.18005
H         22.88310       44.39380       39.47716
H         21.67257       41.62871       39.20108
H         21.98422       42.76333       37.82914
H         23.80983       40.97042       38.48754
H         24.45890       42.67215       38.35154
N         22.43709       40.80883       42.25505
C         21.72973       40.01723       43.24581
C         22.66579       39.75986       44.42318
O         22.25295       39.96186       45.55561
C         21.25123       38.70510       42.59492
C         20.36494       38.97220       41.36334
C         19.93762       37.71258       40.66650
O         20.25715       36.50014       41.15678
O         19.30601       37.78931       39.62621
H         23.15326       40.30910       41.72878
H         20.83394       40.55372       43.63157
H         20.69048       38.10163       43.34234
H         22.13746       38.12446       42.26744
H         20.93951       39.57044       40.62474
H         19.46186       39.54739       41.66211
N         23.96710       39.39392       44.22396
C         24.94261       39.21716       45.27860
H         25.75318       39.96830       45.15086
H         24.50356       39.33872       46.28857
H         25.39206       38.20588       45.19743
H         24.32189       39.27966       43.27420
Ca        18.58553       34.82229       38.42804
O         19.44398       32.21771       40.55714
H         18.54697       31.80568       40.62634
H         19.66609       32.50130       41.47839

Ca 1.0



