%chk=holoCaM.loop4.water3.frame384.chk
%nprocshared=20
%mem=10GB
%nosave
#b3lyp/svp scf=(tight,noincore,xqc) Test 
#IOP(5/87=12) Density=Current Pop=(MK,readradii) iop(6/33=2) iop(6/42=6)

holoCaM.loop4.water3.frame384 

   -3  1 
C         93.43681       63.47857      -10.64500
C         93.30766       62.06861      -10.15587
O         92.68959       61.26481      -10.83664
H         94.51066       63.71833      -10.79320
H         92.90951       63.60560      -11.61559
H         92.99887       64.17789       -9.90399
N         93.87028       61.69832       -8.96942
C         93.82821       60.33202       -8.45372
C         94.38008       60.28217       -7.02982
O         95.49451       60.72786       -6.79424
C         94.60889       59.38102       -9.38696
C         94.56020       57.96643       -8.89624
O         95.59565       57.35934       -8.67781
O         93.37341       57.36320       -8.69575
H         94.34556       62.42749       -8.41491
H         92.76733       59.99699       -8.42873
H         95.66510       59.71478       -9.47942
H         94.15806       59.38447      -10.39970
N         93.63134       59.72174       -6.03598
C         94.00205       59.67907       -4.62077
C         94.32235       58.25642       -4.16296
O         94.89176       58.11918       -3.08853
C         92.80054       60.26803       -3.79016
C         92.59115       61.76522       -4.13333
C         92.92780       60.06542       -2.26379
C         91.29796       62.35500       -3.55622
H         92.73033       59.30435       -6.29934
H         94.92805       60.27179       -4.45048
H         91.88795       59.70827       -4.09620
H         92.52603       61.88342       -5.23402
H         93.46164       62.35725       -3.77696
H         92.95332       58.98751       -2.00562
H         93.83234       60.56951       -1.86739
H         92.03303       60.43959       -1.72991
H         91.29793       62.35913       -2.44843
H         91.19187       63.40888       -3.88710
H         90.41872       61.78162       -3.91993
N         93.92904       57.15331       -4.86158
C         93.96613       55.81465       -4.27106
C         94.36128       54.71256       -5.26597
O         94.48617       53.57349       -4.83874
C         92.62231       55.56089       -3.53668
C         91.45034       55.60669       -4.46367
O         91.22176       56.70197       -5.21060
O         90.75684       54.61724       -4.61099
H         93.40035       57.28899       -5.72948
H         94.74388       55.77970       -3.47785
H         92.47432       56.34458       -2.76231
H         92.65773       54.57589       -3.02220
N         94.63098       54.97239       -6.58046
C         95.16499       53.99461       -7.52162
C         94.25468       52.81134       -7.75889
O         94.67422       51.69033       -7.50973
H         94.52682       55.92580       -6.93565
H         96.15112       53.64268       -7.14686
H         95.33893       54.49368       -8.50028
N         92.99472       52.98782       -8.24505
C         92.05134       51.88720       -8.47290
C         91.44771       51.87742       -9.88003
O         90.56048       51.06991      -10.12204
C         90.96309       51.92039       -7.38517
C         90.14086       53.17034       -7.33546
O         90.30063       54.16668       -8.22477
O         89.34438       53.30953       -6.42409
H         92.68240       53.95612       -8.40542
H         92.55616       50.90563       -8.33701
H         91.47995       51.82798       -6.40301
H         90.28558       51.04647       -7.49128
N         91.89791       52.69755      -10.87377
C         91.37387       52.67588      -12.23586
C         89.99988       53.31101      -12.41984
O         89.53745       53.33908      -13.54979
H         92.70874       53.30309      -10.69208
H         91.36794       51.62896      -12.61083
H         92.06527       53.25819      -12.88178
N         89.30002       53.85414      -11.38351
C         88.00410       54.52599      -11.51952
C         88.08259       55.94424      -10.95495
O         89.12073       56.31474      -10.42951
C         86.90166       53.66655      -10.85702
C         87.14641       53.35555       -9.36903
C         86.12717       52.41115       -8.77789
N         86.25453       52.00604       -7.49319
O         85.19903       51.98890       -9.45249
H         89.70530       53.80150      -10.44946
H         87.73124       54.62067      -12.59284
H         86.86554       52.70095      -11.40802
H         85.91340       54.16195      -10.97521
H         87.14875       54.30195       -8.79317
H         88.12564       52.85328       -9.25553
H         87.03458       52.34074       -6.91106
H         85.57967       51.34584       -7.08022
N         87.02222       56.80573      -11.05639
C         87.07045       58.18852      -10.57380
C         86.04445       58.38702       -9.46645
O         84.88698       58.03710       -9.64462
C         86.92149       59.20186      -11.75133
C         85.51507       59.25389      -12.36965
C         87.33869       60.61606      -11.31064
H         86.15747       56.47617      -11.50796
H         88.07574       58.39481      -10.15005
H         87.63907       58.89649      -12.54534
H         84.77161       59.63026      -11.63514
H         85.51014       59.95286      -13.23426
H         85.20008       58.25619      -12.73343
H         88.38494       60.60839      -10.93458
H         87.30054       61.31967      -12.16999
H         86.67229       60.99591      -10.51056
N         86.41332       58.97618       -8.29409
C         85.50756       59.20749       -7.17392
C         84.98824       60.63500       -7.23141
O         85.39205       61.38795       -8.09886
C         86.30496       58.95004       -5.86646
C         85.52068       58.92014       -4.58153
N         84.59380       57.95997       -4.36272
O         85.76287       59.73617       -3.70550
H         87.36871       59.34289       -8.21497
H         84.64203       58.51293       -7.24207
H         87.11251       59.71232       -5.79383
H         86.78266       57.96493       -5.93021
H         84.40372       57.23941       -5.07378
H         84.08768       57.91872       -3.46588
N         84.06120       61.06667       -6.34025
C         83.59822       62.45197       -6.24552
C         84.73743       63.38055       -5.84148
O         84.89884       64.41969       -6.46744
C         82.35775       62.59007       -5.32197
C         82.40270       61.85829       -3.99880
C         81.94638       60.52716       -3.93358
C         82.84519       62.48388       -2.82465
C         81.96512       59.82441       -2.73203
C         82.85208       61.77891       -1.61270
C         82.41987       60.44672       -1.56474
O         82.44070       59.77527       -0.39598
H         83.69164       60.36557       -5.69576
H         83.23349       62.79523       -7.24072
H         81.49528       62.16336       -5.88029
H         82.08824       63.65977       -5.17920
H         81.58385       60.02561       -4.82348
H         83.17856       63.51278       -2.84634
H         81.62396       58.79657       -2.71330
H         83.19387       62.26728       -0.70947
H         82.15435       58.85217       -0.33137
N         85.60860       63.03869       -4.84987
C         86.75537       63.86029       -4.43987
C         87.81426       64.05119       -5.53877
O         88.79340       64.73735       -5.27864
C         87.45951       63.21694       -3.21329
C         86.57560       63.00117       -1.96750
C         86.07390       64.27941       -1.35401
O         85.31177       65.00975       -1.96574
O         86.43592       64.60494       -0.09855
H         85.43981       62.14672       -4.36873
H         86.38736       64.86787       -4.15868
H         88.32702       63.84276       -2.90575
H         87.85456       62.22370       -3.52408
H         87.19538       62.47385       -1.21030
H         85.71499       62.34245       -2.19424
N         87.70531       63.47577       -6.77010
C         88.72113       63.54739       -7.81378
C         88.17264       64.30459       -9.01103
O         88.77746       65.28926       -9.41136
C         89.13349       62.11047       -8.19672
C         89.68055       61.35330       -6.97234
C         89.95872       59.90233       -7.22785
O         90.31535       59.11843       -6.19796
O         89.82206       59.41013       -8.33409
H         86.88613       62.90683       -6.98498
H         89.63122       64.08081       -7.45746
H         89.89936       62.12755       -9.00356
H         88.23848       61.57235       -8.57411
H         88.92768       61.38081       -6.15850
H         90.60742       61.84625       -6.61421
N         87.01392       63.91667       -9.61510
C         86.41042       64.60414      -10.73722
H         85.40590       64.97386      -10.43915
H         87.01570       65.46705      -11.08259
H         86.28953       63.89227      -11.58043
H         86.51021       63.10157       -9.25631
Ca        90.68556       56.14424       -7.29418
O         91.30287       58.41241      -10.60525
H         91.10464       59.36870      -10.46016
H         90.96290       58.22890      -11.51578
O         88.02474       56.20673       -6.87389
H         87.74744       55.26363       -6.79545
H         88.44768       56.40651       -5.99967
O         92.00862       55.70594      -10.55494
H         91.66366       55.72212      -11.48224
H         92.99286       55.69938      -10.65957

Ca 1.0



