%chk=holoCaM-CaMKII.loop2.water2.frame435.chk
%nprocshared=20
%mem=10GB
%nosave
#b3lyp/svp scf=(tight,noincore,xqc) Test 
#IOP(5/87=12) Density=Current Pop=(MK,readradii) iop(6/33=2) iop(6/42=6)

holoCaM-CaMKII.loop2.water2.frame435 

   -2  1 
C         83.45986       61.66078       25.12195
C         84.71981       62.42522       24.85070
O         84.67893       63.39847       24.11284
H         82.60196       62.11138       24.57755
H         83.58266       60.60631       24.80444
H         83.23737       61.69466       26.21063
N         85.88293       62.06427       25.45987
C         87.09112       62.86531       25.34936
C         87.68894       62.87381       23.95703
O         87.96451       61.81729       23.40713
C         88.15750       62.44107       26.37086
C         89.22596       63.50229       26.43448
O         88.81318       64.78919       26.46267
O         90.41065       63.20800       26.46735
H         85.87167       61.25624       26.10254
H         86.78968       63.89547       25.63698
H         88.56630       61.42328       26.19140
H         87.67357       62.43677       27.36857
N         87.96898       64.06800       23.36406
C         88.55403       64.22770       22.04451
C         89.88876       64.98483       22.06652
O         90.46006       65.14899       20.99751
C         87.53341       64.98122       21.18461
H         87.74180       64.92373       23.87601
H         88.74183       63.23550       21.58226
H         86.58116       64.40841       21.15138
H         87.31957       65.98122       21.62487
H         87.90164       65.11480       20.14719
N         90.43446       65.50285       23.21108
C         91.66452       66.29903       23.23376
C         92.68904       65.79846       24.26848
O         93.84976       65.68794       23.89734
C         91.32902       67.80792       23.31147
C         90.33370       68.18607       24.35689
O         89.26333       68.68503       24.04851
O         90.62229       68.00593       25.63899
H         89.92321       65.40913       24.09708
H         92.19290       66.23795       22.25537
H         90.88237       68.10186       22.33597
H         92.26141       68.40018       23.44292
N         92.35681       65.44716       25.55037
C         93.32592       64.94219       26.53385
C         93.37664       65.75847       27.82487
O         94.16233       65.42155       28.69890
H         91.37201       65.49585       25.83735
H         94.35378       64.92412       26.10896
H         93.06058       63.89551       26.79414
N         92.59848       66.86154       27.99764
C         92.67565       67.78913       29.12338
C         91.95530       67.33444       30.41085
O         91.93149       68.11784       31.35046
C         92.20226       69.20073       28.66585
C         90.80833       69.28622       28.04720
N         90.36008       70.66812       28.01078
O         89.90493       68.53936       28.77110
H         92.00474       67.13199       27.21972
H         93.74430       67.94240       29.38810
H         92.89688       69.58172       27.88457
H         92.26492       69.88880       29.53467
H         90.79001       71.13638       27.18429
H         89.32527       70.68823       27.90180
N         91.39517       66.09813       30.56758
C         90.77891       65.64503       31.82276
C         89.39651       66.22457       32.14940
O         88.85323       65.86053       33.18163
H         91.49476       65.41093       29.80876
H         91.47975       65.84130       32.66384
H         90.64058       64.54389       31.76437
N         88.75901       67.09451       31.31875
C         87.42250       67.65930       31.52603
C         86.50332       67.36658       30.34731
O         86.97313       67.10842       29.24870
C         87.50009       69.20848       31.65995
C         88.09926       69.64841       32.98959
O         88.26458       69.76472       30.61963
H         89.24817       67.35909       30.47703
H         86.95085       67.22950       32.43666
H         86.47624       69.65218       31.64163
H         87.70260       69.76333       29.80226
H         87.44447       69.31261       33.82139
H         89.11962       69.23689       33.12584
H         88.15049       70.75936       33.01724
N         85.15525       67.50826       30.50316
C         84.21853       67.55964       29.38689
C         84.26677       68.96377       28.80394
O         84.05958       69.92383       29.53309
C         82.77670       67.15706       29.83992
C         82.76712       65.66057       30.26070
C         81.75266       67.40596       28.70911
C         81.42352       65.16043       30.79937
H         84.79588       67.74138       31.44193
H         84.50711       66.82941       28.60445
H         82.48011       67.78917       30.70627
H         83.52127       65.50059       31.05999
H         83.04768       65.02689       29.39043
H         81.73315       68.47739       28.42485
H         81.99622       66.79936       27.81163
H         80.72089       67.17049       29.03636
H         81.11692       65.75379       31.68552
H         80.62779       65.20469       30.02848
H         81.52370       64.09579       31.10028
N         84.48084       69.13933       27.46995
C         84.45803       70.43087       26.79522
C         83.13508       70.60394       26.08246
O         82.31089       69.70478       26.12168
C         85.59573       70.51418       25.75866
C         86.95435       70.40971       26.36668
O         87.32538       69.29399       27.02322
O         87.74566       71.32803       26.22846
H         84.57016       68.30703       26.88172
H         84.54401       71.25948       27.53212
H         85.53734       71.48484       25.22253
H         85.48210       69.70033       25.00982
N         82.84456       71.76931       25.43939
C         81.56620       72.00425       24.78638
C         81.34402       71.08410       23.58687
O         80.28068       70.48266       23.54624
C         81.38303       73.48814       24.42372
C         79.96782       73.74387       23.96620
C         78.88672       73.51662       24.84119
C         79.71192       74.19732       22.66404
C         77.57579       73.72805       24.41375
C         78.39650       74.41045       22.24127
C         77.32995       74.17365       23.11394
H         83.53329       72.53609       25.46846
H         80.78269       71.78250       25.54301
H         82.11507       73.79277       23.65283
H         81.57038       74.11309       25.32403
H         79.05323       73.17221       25.85447
H         80.52800       74.37715       21.97560
H         76.75205       73.54388       25.09173
H         78.20409       74.75584       21.23485
H         76.31271       74.33537       22.78425
N         82.26982       70.87187       22.59214
C         82.11469       69.85205       21.55703
C         81.67346       68.51505       22.13232
O         80.79401       67.86392       21.58798
C         83.54580       69.69420       21.00086
C         84.08750       71.09372       21.12532
C         83.57826       71.49636       22.50704
H         81.42332       70.21756       20.76556
H         84.16856       69.07516       21.68817
H         83.60831       69.23692       19.99009
H         85.18768       71.19124       20.99397
H         83.57578       71.71541       20.35715
H         84.22272       71.07675       23.30417
H         83.55925       72.60021       22.55693
N         82.30279       68.05418       23.24510
C         82.12408       66.72990       23.82461
C         80.80048       66.58605       24.56783
O         80.35937       65.46295       24.76656
C         83.28443       66.45205       24.80911
C         84.67863       66.64131       24.15129
C         85.81463       66.55636       25.12569
O         86.93051       66.90021       24.77500
O         85.61758       66.17198       26.39629
H         83.00090       68.68168       23.66426
H         82.18853       65.97854       23.00686
H         83.19678       65.42763       25.23036
H         83.18109       67.17301       25.64309
H         84.77418       67.64982       23.71407
H         84.82667       65.91656       23.32415
N         80.16457       67.66771       25.09893
C         78.96369       67.56631       25.89940
H         78.13732       67.13195       25.30088
H         79.15569       66.93635       26.79409
H         78.65849       68.57773       26.24896
H         80.55884       68.60103       24.96693
Ca        89.34126       66.66512       27.59565
O         89.16202       64.72791       29.40868
H         88.24063       64.68012       29.75662
H         89.38347       63.81646       29.10277
O         86.14230       64.25598       28.47730
H         85.24546       64.64708       28.34934
H         85.96151       63.32623       28.76000

Ca 1.0



