%chk=holoCaM.loop3.water2.frame123.chk
%nprocshared=20
%mem=10GB
%nosave
#b3lyp/svp scf=(tight,noincore,xqc) Test 
#IOP(5/87=12) Density=Current Pop=(MK,readradii) iop(6/33=2) iop(6/42=6)

holoCaM.loop3.water2.frame123 

   0  1 
C         96.08606       93.69840       11.08033
C         96.77663       92.60484       11.83891
O         97.10620       92.80157       12.99961
H         95.14561       93.97450       11.59957
H         96.75205       94.58339       11.01881
H         95.83460       93.37642       10.04663
N         97.03897       91.41919       11.22941
C         97.70285       90.29805       11.87356
C         99.00074       90.06914       11.13678
O         98.96000       89.87868        9.92736
C         96.75998       89.09404       11.78672
C         97.16190       87.88437       12.56303
O         98.24076       87.83009       13.36519
O         96.42631       86.91748       12.51263
H         96.75795       91.29951       10.24261
H         97.90288       90.51776       12.94618
H         96.62135       88.80622       10.72198
H         95.76923       89.39589       12.19159
N        100.19819       90.12080       11.78464
C        101.46978       90.09985       11.07062
C        102.17645       88.76292       11.19161
O        103.19132       88.59825       10.52998
C        102.35940       91.26709       11.54386
C        101.66929       92.63237       11.36842
C        102.55788       93.76953       11.88726
C        101.84991       95.12661       11.76781
N        102.68999       96.20218       12.29442
H        100.21304       90.21925       12.81227
H        101.29261       90.23302        9.97959
H        103.30901       91.26682       10.96431
H        102.60288       91.11812       12.61880
H        100.71737       92.64279       11.94290
H        101.43664       92.79914       10.29341
H        103.50724       93.79376       11.30863
H        102.79562       93.58399       12.95770
H        100.89583       95.09848       12.34064
H        101.61206       95.33301       10.70058
H        103.58154       96.26214       11.75103
H        102.17869       97.11027       12.20902
H        102.90329       96.02999       13.30405
N        101.67257       87.73908       11.94594
C        102.22281       86.38701       11.91389
C        101.21766       85.40087       11.30878
O        101.56757       84.23957       11.14693
C        102.75080       85.98693       13.30412
C        101.69229       85.89532       14.36189
O        101.72764       86.71805       15.42715
O        100.82311       85.04523       14.28583
H        100.83596       87.89358       12.52490
H        103.10658       86.35417       11.24001
H        103.50250       86.74784       13.61017
H        103.27190       85.00734       13.23948
N         99.99060       85.80976       10.86091
C         99.10569       84.98350       10.05803
C         98.41210       83.82812       10.74770
O         97.67181       83.15202       10.04564
H         99.70324       86.79310       10.96120
H         99.67574       84.60289        9.18314
H         98.29319       85.63366        9.66174
N         98.53797       83.52494       12.07653
C         97.78433       82.41060       12.66186
C         96.26272       82.64733       12.68247
O         95.54061       81.74207       13.07537
C         98.28318       82.00998       14.07610
C         98.15315       83.03787       15.21820
N         97.95218       82.34192       16.48799
O         97.10164       83.92318       15.02888
H         99.18176       84.06791       12.66485
H         97.97942       81.51556       12.02898
H         99.35049       81.70154       14.03156
H         97.70647       81.10060       14.35507
H         98.77656       81.74041       16.70605
H         97.81795       83.03797       17.25567
N         95.70474       83.82642       12.28214
C         94.28027       84.12036       12.31543
C         93.76138       84.26384       13.72907
O         92.76245       83.64650       14.06001
H         96.30648       84.57259       11.92104
H         93.71028       83.36084       11.73624
H         94.12198       85.10526       11.82552
N         94.37918       85.12478       14.58858
C         93.98581       85.41563       15.97252
C         94.88381       86.53288       16.48658
O         96.09024       86.33948       16.50404
C         94.19464       84.21843       16.94395
C         93.36732       82.98896       16.68588
C         93.92618       81.91199       15.97969
C         92.04989       82.88799       17.16508
C         93.17364       80.76374       15.72823
C         91.30440       81.72597       16.93190
C         91.86340       80.66279       16.20543
O         91.15591       79.54092       15.96336
H         95.18324       85.64124       14.20637
H         92.92425       85.74623       15.99519
H         93.98099       84.54805       17.98648
H         95.26724       83.93088       16.94381
H         94.93925       81.97548       15.60609
H         91.60592       83.69900       17.72968
H         93.61241       79.95168       15.16291
H         90.29403       81.65214       17.31491
H         90.24940       79.42416       16.28094
N         94.38041       87.71799       16.92885
C         95.23297       88.77809       17.46780
C         94.92523       89.01056       18.93325
O         93.77910       88.89095       19.34387
C         95.15731       90.09350       16.63683
C         93.71707       90.66049       16.54012
C         95.77303       89.85916       15.24528
C         93.65207       92.04769       15.89456
H         93.35998       87.86186       16.91154
H         96.30251       88.47142       17.43860
H         95.79408       90.84612       17.15454
H         93.29630       90.76642       17.56151
H         93.06820       89.96700       15.96348
H         96.81370       89.48400       15.34759
H         95.18097       89.11541       14.67213
H         95.83454       90.79949       14.66311
H         94.26795       92.76892       16.47331
H         93.99815       92.03027       14.84181
H         92.60023       92.40372       15.89359
N         95.92578       89.40530       19.77048
C         95.73230       89.71523       21.18086
C         95.80291       91.21549       21.37746
O         95.97485       91.93378       20.40732
C         96.79423       88.98273       22.02673
O         98.08697       89.44862       21.73205
H         96.86609       89.55086       19.37468
H         94.72667       89.38667       21.52097
H         96.72112       87.88106       21.87277
H         96.61237       89.14892       23.10885
H         98.48393       88.82309       21.07282
N         95.66066       91.76529       22.61329
C         95.74177       93.20190       22.86259
C         97.08892       93.75666       22.43347
O         97.12223       94.75447       21.72734
C         95.51414       93.48897       24.34894
H         95.49487       91.13387       23.41159
H         94.93339       93.72460       22.30246
H         94.51283       93.11473       24.65287
H         96.28748       92.99230       24.97230
H         95.54632       94.58405       24.53394
N         98.24210       93.12895       22.79912
C         99.57665       93.58763       22.41920
C         99.71085       93.75197       20.91456
O        100.09382       94.82333       20.46606
C        100.63047       92.59166       22.92231
H         98.16089       92.26550       23.35919
H         99.77666       94.56829       22.90536
H        100.47289       91.58757       22.47129
H        101.65061       92.94414       22.66010
H        100.56590       92.49423       24.02692
N         99.38725       92.73069       20.07638
C         99.48264       92.80922       18.61814
C         98.66914       93.97002       18.06673
O         99.17748       94.69476       17.22235
C         99.02556       91.48117       17.97757
C         99.99171       90.33173       18.32346
C         99.53033       89.02474       17.75160
O         99.29712       87.98393       18.57200
O         99.38680       88.88892       16.54713
H         99.02986       91.86361       20.50493
H        100.54229       92.96932       18.31624
H         99.01098       91.59055       16.87016
H         97.99466       91.24723       18.31507
H        100.08437       90.21437       19.42286
H        101.00021       90.56460       17.91740
N         97.41810       94.23679       18.52530
C         96.63020       95.34712       18.03816
H         95.67530       95.40900       18.60344
H         97.18381       96.30016       18.17965
H         96.40074       95.20287       16.96201
H         97.02369       93.65827       19.27068
Ca        98.11555       85.90274       14.52336
O        100.25376       84.62172       17.31911
H        101.04277       84.02519       17.28337
H        100.30778       85.05136       18.20928
O         97.49100       85.39169       18.89586
H         97.12077       86.13651       19.43264
H         97.94568       85.83671       18.13787

Ca 1.0



