%chk=holoCaM-CaMKII.loop3.water2.frame15.chk
%nprocshared=20
%mem=10GB
%nosave
#b3lyp/svp scf=(tight,noincore,xqc) Test 
#IOP(5/87=12) Density=Current Pop=(MK,readradii) iop(6/33=2) iop(6/42=6)

holoCaM-CaMKII.loop3.water2.frame15 

   0  1 
C         32.03978       55.58644       14.40957
C         31.11031       54.91880       15.37998
O         31.16450       53.70486       15.51205
H         33.08989       55.37471       14.70065
H         31.85525       55.20198       13.38527
H         31.89514       56.68810       14.40477
N         30.22165       55.66221       16.09484
C         29.30384       55.11671       17.08271
C         27.89407       55.36918       16.56192
O         27.23416       56.30411       16.99169
C         29.59838       55.80025       18.42923
C         28.86366       55.29735       19.65016
O         29.05845       55.89330       20.69497
O         28.05507       54.20994       19.66910
H         30.18818       56.68124       15.93398
H         29.49472       54.03633       17.21247
H         29.39078       56.88638       18.32064
H         30.68246       55.68175       18.64930
N         27.43666       54.62478       15.51748
C         26.23930       54.95518       14.74325
C         24.91097       54.84755       15.49575
O         23.93007       55.33612       14.95137
C         26.20652       54.13743       13.42734
C         27.45874       54.43221       12.57358
C         27.47148       53.67313       11.24442
C         28.77444       53.91641       10.45556
N         28.96651       55.32517       10.09977
H         28.04471       53.85835       15.19667
H         26.33706       56.02519       14.45191
H         25.30880       54.42406       12.83626
H         26.14194       53.05120       13.65767
H         28.38180       54.14949       13.11718
H         27.48463       55.52389       12.37800
H         26.59507       53.97219       10.63008
H         27.40062       52.58260       11.45190
H         28.73538       53.31098        9.52386
H         29.64617       53.56533       11.05261
H         29.81641       55.41045        9.49716
H         28.13817       55.68233        9.57113
H         29.12672       55.90730       10.95242
N         24.78210       54.26995       16.72881
C         23.53640       54.31341       17.50584
C         23.70987       55.05908       18.83040
O         22.72100       55.25181       19.52416
C         22.93710       52.90463       17.70714
C         23.74329       51.95259       18.55080
O         24.91629       52.31423       19.10313
O         23.30888       50.83072       18.75533
H         25.59607       53.80771       17.14180
H         22.76774       54.88547       16.94174
H         22.77499       52.44637       16.70737
H         21.94074       53.01569       18.19058
N         24.92004       55.54848       19.22654
C         25.11725       56.36688       20.40623
C         24.86923       55.62546       21.69357
O         24.05538       56.07563       22.48692
H         25.75079       55.39155       18.64964
H         24.47747       57.27326       20.33765
H         26.17634       56.70745       20.42743
N         25.59702       54.51350       21.99330
C         25.54736       53.83607       23.28641
C         26.88385       53.92800       24.02874
O         26.94555       53.47258       25.16213
C         25.07271       52.37063       23.12571
C         25.95038       51.45803       22.29410
N         25.61523       50.15621       22.14867
O         26.95877       51.87451       21.75101
H         26.24908       54.16476       21.28151
H         24.80466       54.33993       23.94250
H         24.06013       52.37900       22.66808
H         24.98497       51.92368       24.13962
H         24.77019       49.77700       22.59919
H         26.20629       49.52363       21.58918
N         27.98883       54.50209       23.46364
C         29.27597       54.64016       24.12798
C         30.34643       53.75983       23.51065
O         31.47022       53.80835       23.99093
H         27.93857       54.85906       22.50723
H         29.20553       54.35499       25.19972
H         29.58505       55.70668       24.08380
N         30.05944       52.86438       22.51883
C         30.98716       51.82879       22.07471
C         31.08455       51.75136       20.55795
O         30.33416       52.41448       19.85639
C         30.44381       50.48544       22.60791
C         30.37110       50.48909       24.11687
C         29.13120       50.58413       24.77387
C         31.54695       50.41088       24.87959
C         29.07234       50.60641       26.17069
C         31.48451       50.41725       26.27630
C         30.24592       50.51800       26.92674
O         30.17175       50.53031       28.27307
H         29.10410       52.81424       22.15183
H         32.00620       52.01161       22.48127
H         31.05240       49.61725       22.27620
H         29.42206       50.35288       22.18632
H         28.21120       50.65907       24.20784
H         32.51024       50.33393       24.39122
H         28.11306       50.69239       26.66600
H         32.39905       50.34527       26.85124
H         30.95876       50.46346       28.83262
N         32.01304       50.92782       19.99176
C         32.14454       50.67988       18.55747
C         32.13544       49.17423       18.33453
O         32.91480       48.48433       18.97938
C         33.47046       51.28225       17.99959
C         33.52724       52.80946       18.26349
C         33.58681       50.98317       16.48506
C         34.82075       53.47081       17.77794
H         32.67563       50.44639       20.62018
H         31.31257       51.15776       17.99135
H         34.33136       50.80473       18.51873
H         33.46372       52.98636       19.35804
H         32.66344       53.31525       17.78029
H         34.54479       51.34539       16.06550
H         33.57665       49.89275       16.29279
H         32.74613       51.44790       15.92610
H         35.70300       52.98248       18.24346
H         34.91314       53.42537       16.67385
H         34.81589       54.54403       18.06025
N         31.35232       48.60660       17.37337
C         31.40512       47.18354       17.04687
C         32.04709       46.99015       15.68632
O         32.35394       47.96690       15.02305
C         29.99602       46.56177       17.08763
O         29.19243       47.03739       16.04080
H         30.76852       49.21893       16.79098
H         32.03411       46.64563       17.78791
H         29.50952       46.74017       18.07360
H         30.07019       45.46023       16.97373
H         28.83372       47.91293       16.32689
N         32.30272       45.74291       15.21085
C         32.89048       45.49998       13.89688
C         31.96735       45.98553       12.79441
O         32.42425       46.68117       11.89857
C         33.17218       44.00814       13.71166
H         32.07355       44.93542       15.81095
H         33.87355       46.01858       13.82132
H         33.64809       43.83450       12.72234
H         33.87753       43.66432       14.49876
H         32.23793       43.41246       13.77718
N         30.63860       45.67841       12.82745
C         29.67254       46.09835       11.81463
C         29.73682       47.59131       11.56423
O         29.89309       48.00089       10.42238
C         28.25209       45.72100       12.26442
H         30.29249       45.13875       13.63655
H         29.88698       45.56742       10.86120
H         27.50925       46.01945       11.49432
H         28.17603       44.62458       12.42160
H         27.99201       46.22879       13.21967
N         29.63846       48.46035       12.60252
C         29.67795       49.91163       12.45539
C         30.98527       50.34564       11.80758
O         30.94328       50.98806       10.76728
C         29.47580       50.57258       13.83450
C         28.06812       50.26248       14.40184
C         27.93668       50.78614       15.79669
O         27.04285       51.73542       16.09798
O         28.69374       50.39942       16.66871
H         29.54567       48.05632       13.54593
H         28.84036       50.24310       11.80109
H         29.58602       51.67680       13.74839
H         30.26377       50.20009       14.52680
H         27.87024       49.17354       14.43918
H         27.30299       50.72830       13.74366
N         32.18580       49.99641       12.34232
C         33.44653       50.34252       11.72112
H         34.28836       49.92051       12.31176
H         33.49403       49.91779       10.69500
H         33.56030       51.44549       11.67351
H         32.20856       49.44372       13.20406
Ca        27.66807       52.77975       17.98021
O         25.87671       49.01942       17.89353
H         26.07500       48.05242       17.81756
H         25.32616       49.09361       18.71279
O         28.43183       48.97036       19.82723
H         29.24146       48.69584       20.32621
H         27.78393       48.23909       19.98858

Ca 1.0



