%chk=holoCaM-CaMKII.loop3.water2.frame122.chk
%nprocshared=20
%mem=10GB
%nosave
#b3lyp/svp scf=(tight,noincore,xqc) Test 
#IOP(5/87=12) Density=Current Pop=(MK,readradii) iop(6/33=2) iop(6/42=6)

holoCaM-CaMKII.loop3.water2.frame122 

   0  1 
C         31.92798       42.54659       75.63711
C         32.11376       41.37069       76.54391
O         32.37577       40.28735       76.04046
H         32.85895       42.70618       75.05330
H         31.08983       42.34300       74.93797
H         31.70222       43.46902       76.21057
N         31.99005       41.50356       77.89691
C         32.17150       40.39101       78.81421
C         30.85199       40.10699       79.51543
O         30.72140       40.29505       80.71688
C         33.34299       40.68197       79.77905
C         33.75911       39.38953       80.41160
O         33.62199       39.19813       81.60506
O         34.20315       38.40777       79.60318
H         31.75538       42.42593       78.29507
H         32.43831       39.47440       78.24303
H         33.05087       41.45295       80.52603
H         34.22289       41.05702       79.21443
N         29.81345       39.64640       78.76944
C         28.47989       39.33937       79.28422
C         28.55037       38.22767       80.32694
O         28.10766       38.43984       81.44724
C         27.55665       38.95439       78.10002
C         27.34924       40.15573       77.14763
C         26.60943       39.75931       75.86299
C         26.31234       40.96166       74.94259
N         27.52347       41.65005       74.48516
H         29.99906       39.49970       77.76550
H         28.04435       40.24597       79.76303
H         26.56079       38.62934       78.47363
H         28.01470       38.10503       77.54682
H         28.32806       40.57717       76.85014
H         26.78038       40.94463       77.68671
H         25.63994       39.28786       76.13168
H         27.21818       39.01313       75.30568
H         25.65366       41.68489       75.47179
H         25.75960       40.58467       74.05358
H         28.01392       42.11371       75.28246
H         28.16747       40.97933       74.00687
H         27.25086       42.39702       73.80576
N         29.12446       37.02557       80.03122
C         29.24948       35.91496       80.98887
C         30.01957       36.26253       82.27563
O         29.91717       35.49497       83.22185
C         29.90683       34.66628       80.33795
C         31.27934       34.99316       79.81544
O         31.40299       35.70546       78.83270
O         32.38140       34.67374       80.51053
H         29.45657       36.90481       79.06716
H         28.21672       35.64365       81.30155
H         29.29014       34.27103       79.50275
H         29.98329       33.86633       81.10626
N         30.78096       37.38683       82.39821
C         31.41699       37.82736       83.63637
C         32.53181       36.92769       84.15839
O         32.25531       35.81274       84.57089
H         30.87471       38.00752       81.58696
H         30.64551       37.94548       84.42799
H         31.83315       38.84060       83.45638
N         33.81363       37.40446       84.23700
C         34.93961       36.72600       84.89526
C         36.23154       37.54090       84.79096
O         36.99171       37.54296       85.75033
C         35.23193       35.27580       84.44099
C         35.83159       35.19239       83.07244
N         37.08064       34.71048       82.88781
O         35.18805       35.57409       82.11799
H         33.97401       38.35643       83.88557
H         34.66495       36.63525       85.96991
H         34.33073       34.63570       84.49173
H         35.95808       34.84553       85.16601
H         37.65282       34.38544       83.68119
H         37.47768       34.67255       81.94085
N         36.55692       38.23379       83.65184
C         37.78257       39.00547       83.50595
C         38.54575       38.76310       82.20718
O         39.58160       39.38904       82.05595
H         35.88294       38.26777       82.87416
H         38.46888       38.83000       84.36175
H         37.51356       40.08463       83.51108
N         38.08413       37.95643       81.19633
C         38.76535       37.89266       79.89290
C         37.83657       37.43091       78.77279
O         36.77608       36.89834       79.04859
C         40.07272       37.06330       79.96889
C         39.87106       35.61507       80.38438
C         40.40452       35.14828       81.60079
C         39.17286       34.70953       79.56329
C         40.22860       33.81549       81.99169
C         38.99516       33.37913       79.95728
C         39.51805       32.92743       81.17185
O         39.33012       31.64357       81.53952
H         37.18350       37.48166       81.31230
H         39.01271       38.94013       79.61115
H         40.74401       37.56163       80.69987
H         40.59691       37.08646       78.98939
H         40.95462       35.81489       82.25273
H         38.76812       35.02205       78.61313
H         40.64078       33.47534       82.93345
H         38.44853       32.69771       79.31747
H         39.66692       31.29173       82.37590
N         38.15760       37.69875       77.46358
C         37.25932       37.37287       76.34961
C         37.97502       36.62083       75.23929
O         39.18745       36.48900       75.26134
C         36.53953       38.66218       75.82220
C         37.45009       39.77334       75.23138
C         35.69865       39.26918       76.95368
C         38.02949       39.45823       73.85137
H         39.02044       38.22177       77.26329
H         36.46237       36.68894       76.71019
H         35.81123       38.37311       75.03627
H         38.25627       40.04680       75.94387
H         36.82515       40.67987       75.07057
H         35.10867       40.13462       76.58578
H         34.98098       38.51025       77.31691
H         36.33622       39.61633       77.79447
H         38.58212       40.34466       73.47589
H         38.73864       38.61374       73.86493
H         37.20437       39.24361       73.13951
N         37.23365       36.10057       74.21709
C         37.78602       35.44257       73.03553
C         37.21642       36.09731       71.77608
O         36.48643       37.06577       71.88629
C         37.44081       33.94583       73.09347
O         36.05122       33.74540       73.09494
H         36.20897       36.16936       74.27942
H         38.89413       35.52346       73.01072
H         37.91619       33.50166       74.00104
H         37.87760       33.40169       72.23040
H         35.80191       33.43165       74.00284
N         37.49806       35.60123       70.53598
C         36.91309       36.13693       69.30451
C         35.39559       36.01999       69.30272
O         34.73079       36.99908       68.98897
C         37.47079       35.39517       68.08657
H         38.13986       34.79963       70.46427
H         37.20110       37.20609       69.18724
H         38.57458       35.51202       68.04882
H         37.22130       34.31408       68.12951
H         37.04530       35.82677       67.15412
N         34.77886       34.85347       69.66055
C         33.32444       34.65452       69.65748
C         32.54622       35.58532       70.59329
O         31.32544       35.50581       70.59829
C         33.00467       33.20058       70.03515
H         35.38134       34.05904       69.92834
H         32.95721       34.82905       68.62216
H         33.34925       32.98682       71.07065
H         31.91178       33.00816       69.97586
H         33.51389       32.50326       69.33675
N         33.16566       36.50121       71.38750
C         32.48005       37.43696       72.26436
C         32.64489       38.83515       71.70089
O         31.64210       39.48282       71.43215
C         33.06797       37.32297       73.68213
C         32.82580       35.92853       74.27564
C         33.49341       35.78952       75.60976
O         34.33506       34.92382       75.77989
O         33.16776       36.61086       76.62499
H         34.18406       36.56374       71.38087
H         31.38861       37.22242       72.31763
H         32.60567       38.08604       74.34517
H         34.16061       37.51571       73.63448
H         33.23235       35.14981       73.59301
H         31.73426       35.75807       74.39265
N         33.87866       39.35511       71.45128
C         34.05912       40.65635       70.84689
H         35.14204       40.85926       70.70353
H         33.56416       40.68162       69.85179
H         33.62712       41.44377       71.49858
H         34.72013       38.80631       71.66800
Ca        33.90661       36.22669       79.97969
O         36.31689       34.23958       77.88698
H         35.36910       33.95702       77.89496
H         36.79604       33.49723       77.44130
O         34.92036       32.80624       80.27527
H         34.22458       32.40637       80.85451
H         35.05687       32.13920       79.55615

Ca 1.0



