%chk=holoCaM.loop4.water3.frame38.chk
%nprocshared=20
%mem=10GB
%nosave
#b3lyp/svp scf=(tight,noincore,xqc) Test 
#IOP(5/87=12) Density=Current Pop=(MK,readradii) iop(6/33=2) iop(6/42=6)

holoCaM.loop4.water3.frame38 

   -3  1 
C          6.79333       -8.03393       14.55189
C          5.97995       -7.35132       15.61318
O          5.07251       -6.60919       15.27706
H          7.86675       -7.78054       14.66428
H          6.66620       -9.13429       14.64869
H          6.45213       -7.73470       13.53718
N          6.21906       -7.61592       16.92710
C          5.38628       -7.13597       18.02637
C          6.22288       -6.56662       19.17215
O          7.12648       -7.25129       19.63282
C          4.58793       -8.34432       18.53525
C          3.83100       -8.03420       19.78770
O          2.87605       -7.08610       19.85547
O          4.11619       -8.64398       20.80603
H          6.96568       -8.29301       17.15119
H          4.64800       -6.37996       17.68874
H          5.29897       -9.17154       18.76040
H          3.89226       -8.70480       17.75093
N          5.89467       -5.36869       19.75490
C          6.54828       -4.85929       20.96798
C          5.59035       -4.70916       22.16543
O          6.10059       -4.42232       23.23995
C          7.26675       -3.49220       20.71170
C          6.26607       -2.38740       20.28353
C          8.40219       -3.65778       19.68773
C          6.85942       -0.97936       20.22245
H          5.12180       -4.82421       19.34834
H          7.32329       -5.58380       21.30141
H          7.73606       -3.17708       21.67077
H          5.42499       -2.34274       21.00682
H          5.86145       -2.63583       19.29167
H          8.97911       -2.71708       19.57625
H          9.11572       -4.43410       20.03574
H          8.00306       -3.95281       18.69447
H          7.66778       -0.90477       19.46865
H          6.06204       -0.26222       19.93000
H          7.24840       -0.68393       21.21952
N          4.22305       -4.79930       22.07165
C          3.33193       -4.45483       23.19476
C          2.23620       -5.48621       23.51446
O          1.44963       -5.22557       24.41466
C          2.74268       -3.04261       22.96615
C          1.86067       -2.88166       21.76060
O          1.60344       -3.91251       20.94240
O          1.37030       -1.79111       21.51798
H          3.80015       -4.98319       21.15413
H          3.92335       -4.35831       24.13100
H          3.58897       -2.32821       22.86592
H          2.15845       -2.74635       23.86414
N          2.14500       -6.68779       22.87981
C          1.17938       -7.72972       23.23186
C         -0.27948       -7.46970       22.86152
O         -1.09437       -8.33864       23.13805
H          2.86018       -6.92360       22.18950
H          1.25627       -7.93809       24.32048
H          1.46677       -8.65986       22.69383
N         -0.69229       -6.34237       22.21682
C         -2.08438       -6.09087       21.80022
C         -2.62426       -7.06082       20.73383
O         -3.79100       -6.93507       20.38624
C         -2.21402       -4.63669       21.27772
C         -1.29182       -4.35287       20.11741
O         -0.54310       -5.35858       19.61359
O         -1.17043       -3.21335       19.70881
H          0.01175       -5.61714       22.03523
H         -2.73561       -6.17947       22.69843
H         -1.92945       -3.95789       22.11168
H         -3.26475       -4.40459       20.99723
N         -1.86362       -8.04669       20.17492
C         -2.37436       -9.00537       19.20263
C         -2.55130       -8.47374       17.78659
O         -2.89243       -9.27697       16.93057
H         -0.89429       -8.18033       20.48708
H         -3.31680       -9.45939       19.57865
H         -1.62893       -9.82580       19.11655
N         -2.30453       -7.17572       17.44067
C         -2.34968       -6.67981       16.06261
C         -0.98473       -6.12533       15.66961
O         -0.08976       -6.11596       16.49889
C         -3.42857       -5.58814       15.92749
C         -4.82562       -6.10967       16.29037
C         -5.86369       -5.03774       16.08066
N         -6.59983       -4.57228       17.11628
O         -6.04466       -4.58556       14.95949
H         -2.04980       -6.50279       18.16916
H         -2.59327       -7.50163       15.35402
H         -3.45195       -5.22915       14.87591
H         -3.17545       -4.72758       16.58594
H         -4.82773       -6.44005       17.35144
H         -5.08382       -6.98332       15.65319
H         -6.46265       -4.93620       18.07029
H         -7.30829       -3.83914       16.96412
N         -0.75492       -5.63851       14.41364
C          0.53015       -5.08300       13.98688
C          0.36916       -3.59968       13.68692
O         -0.54778       -3.22165       12.97172
C          1.14335       -5.90429       12.81353
C          0.30739       -5.88642       11.52456
C          2.57680       -5.43115       12.50871
H         -1.52703       -5.65111       13.73234
H          1.26921       -5.17087       14.80995
H          1.21715       -6.96205       13.15316
H         -0.70813       -6.29307       11.70143
H          0.22690       -4.85915       11.11325
H          0.79131       -6.52733       10.75573
H          3.20845       -5.49980       13.42016
H          3.03954       -6.07350       11.72905
H          2.58461       -4.38057       12.14948
N          1.25597       -2.70329       14.20818
C          1.15833       -1.25364       14.04937
C          2.19317       -0.76354       13.05025
O          2.99564       -1.55272       12.57356
C          1.33237       -0.62858       15.45734
C          1.36000        0.87503       15.55161
N          0.29381        1.61907       15.18388
O          2.35494        1.42789       15.99778
H          2.06564       -3.06905       14.73223
H          0.16683       -0.97813       13.62888
H          2.28363       -1.01273       15.89038
H          0.49595       -0.97916       16.08744
H         -0.55880        1.17355       14.81770
H          0.32572        2.64590       15.26851
N          2.16559        0.53140       12.61746
C          3.08174        1.06562       11.61289
C          4.49320        1.28326       12.14853
O          5.36312        1.61355       11.35463
C          2.49441        2.36016       10.99944
C          2.42449        3.52271       11.96472
C          3.58122        4.25711       12.27732
C          1.20128        3.89738       12.54552
C          3.51864        5.33688       13.15999
C          1.14351        4.97034       13.44054
C          2.30023        5.69272       13.75132
O          2.23018        6.72520       14.61490
H          1.39953        1.13101       12.94720
H          3.12526        0.32778       10.78031
H          1.47164        2.10365       10.64325
H          3.06716        2.67495       10.10030
H          4.53363        4.00587       11.83156
H          0.29467        3.35005       12.31927
H          4.42059        5.89152       13.38633
H          0.19789        5.23988       13.89300
H          3.00975        7.24647       14.85502
N          4.80319        1.10306       13.46742
C          6.15498        1.22512       14.00290
C          6.73655       -0.15581       14.26468
O          7.86698       -0.24244       14.72374
C          6.14520        2.05399       15.30731
C          5.57322        3.46102       15.10557
C          5.61749        4.25810       16.37792
O          6.68651        4.50654       16.91289
O          4.47654        4.71803       16.92642
H          4.07500        0.78944       14.12329
H          6.82724        1.72152       13.26913
H          7.18902        2.14092       15.68285
H          5.53916        1.52743       16.07900
H          4.51710        3.37330       14.77834
H          6.15391        3.99893       14.32574
N          6.02456       -1.28242       13.96941
C          6.48779       -2.63734       14.18960
C          6.57122       -3.41375       12.87779
O          7.00113       -4.55906       12.91269
C          5.47344       -3.35230       15.09922
C          5.15925       -2.59632       16.39848
C          4.06261       -3.25980       17.19216
O          3.51848       -4.27802       16.79582
O          3.64514       -2.69886       18.34062
H          5.08282       -1.20035       13.58347
H          7.49189       -2.62899       14.66718
H          5.86520       -4.35515       15.35005
H          4.52113       -3.46001       14.53152
H          4.80220       -1.57161       16.16318
H          6.08390       -2.52012       17.00618
N          6.14220       -2.88910       11.69027
C          6.15191       -3.65442       10.46349
H          5.72093       -3.04838        9.63722
H          7.19132       -3.93675       10.19814
H          5.53168       -4.56883       10.58431
H          5.76513       -1.93331       11.63441
Ca         1.53740       -5.62935       18.75715
O          0.64658       -8.40957       18.29369
H          1.01722       -8.93395       19.04627
H          0.53343       -9.06580       17.56195
O          0.86245       -2.62104       17.99675
H          1.14826       -1.96478       18.68090
H         -0.04950       -2.33007       17.74633
O          2.25422       -7.55116       16.09500
H          2.76122       -8.17654       15.52093
H          2.67051       -6.66816       15.94147

Ca 1.0



