%chk=holoCaM.loop4.water2.frame17.chk
%nprocshared=20
%mem=10GB
%nosave
#b3lyp/svp scf=(tight,noincore,xqc) Test 
#IOP(5/87=12) Density=Current Pop=(MK,readradii) iop(6/33=2) iop(6/42=6)

holoCaM.loop4.water2.frame17 

   -3  1 
C         70.63260       17.41419       45.50388
C         71.84612       17.82123       44.72736
O         72.23658       18.97694       44.81698
H         69.84628       17.03669       44.82116
H         70.91521       16.61841       46.22525
H         70.23165       18.27791       46.07906
N         72.50842       16.91756       43.94540
C         73.76251       17.24048       43.27140
C         74.20534       16.11409       42.33954
O         74.38520       14.99658       42.80672
C         74.85109       17.49935       44.34025
C         76.14343       17.94790       43.74218
O         76.19225       18.98630       43.10194
O         77.26087       17.22344       43.94130
H         72.11568       15.96753       43.85325
H         73.61538       18.15884       42.67069
H         75.01267       16.57268       44.93294
H         74.53896       18.29496       45.04438
N         74.44508       16.35529       41.01295
C         74.94382       15.34385       40.07526
C         76.35450       15.65891       39.55689
O         76.88801       14.85045       38.81427
C         73.97971       15.17841       38.85343
C         73.90326       16.46094       37.97346
C         72.58238       14.74278       39.32385
C         73.24849       16.23006       36.60948
H         74.29564       17.31149       40.66009
H         75.02077       14.36140       40.59030
H         74.39909       14.36213       38.22398
H         74.92507       16.83299       37.75146
H         73.35620       17.25878       38.50902
H         72.65599       13.81322       39.92533
H         72.11341       15.53446       39.94626
H         71.91603       14.53144       38.46376
H         73.25844       17.17896       36.03091
H         73.82527       15.47160       36.03728
H         72.19626       15.89896       36.70316
N         76.97614       16.84236       39.83905
C         78.22420       17.27086       39.19180
C         79.25052       17.90892       40.13355
O         80.37295       18.12699       39.69145
C         77.90628       18.28167       38.06258
C         77.20570       19.53320       38.53958
O         76.71735       19.61379       39.79280
O         77.07092       20.47834       37.78015
H         76.47073       17.49759       40.43142
H         78.71857       16.39239       38.72416
H         77.28472       17.80433       37.27579
H         78.86936       18.57941       37.59144
N         78.94644       18.29580       41.40016
C         79.88502       18.94818       42.29549
C         80.39753       20.26943       41.75735
O         81.60420       20.39284       41.60458
H         78.00674       18.13068       41.76026
H         80.73812       18.26015       42.48617
H         79.38733       19.14535       43.26998
N         79.55150       21.31375       41.49021
C         80.03325       22.63578       41.07410
C         79.76085       23.71234       42.12225
O         80.26488       24.81439       41.95170
C         79.55546       23.02916       39.64744
C         78.11830       23.44353       39.42371
O         77.21239       23.48182       40.40991
O         77.76851       23.76645       38.30022
H         78.54770       21.16647       41.63040
H         81.14032       22.59143       40.99354
H         79.79030       22.18446       38.96340
H         80.16208       23.90226       39.32448
N         78.99804       23.47719       43.23389
C         78.80165       24.44901       44.30105
C         77.39984       25.02627       44.32737
O         77.10694       25.77998       45.24402
H         78.52683       22.57058       43.35694
H         79.49898       25.30934       44.20222
H         79.03391       23.95023       45.26671
N         76.51982       24.80725       43.30725
C         75.23837       25.48751       43.17396
C         74.14100       24.50951       42.80404
O         74.28087       23.80404       41.81313
C         75.31636       26.54019       42.05479
C         76.42129       27.57736       42.29672
C         76.31907       28.70748       41.30600
N         76.40670       28.48204       39.97424
O         76.14544       29.84590       41.71465
H         76.81419       24.22075       42.52733
H         74.97911       26.02969       44.11026
H         74.33380       27.06200       42.01990
H         75.49017       26.04726       41.07272
H         77.41973       27.09475       42.21169
H         76.31888       27.99152       43.32398
H         76.55050       27.53190       39.60374
H         76.32144       29.26401       39.30819
N         72.99169       24.44811       43.52919
C         71.88431       23.56938       43.16151
C         71.27243       24.05062       41.84513
O         70.80850       25.18155       41.79224
C         70.79650       23.52132       44.27796
C         69.72003       22.47638       43.93251
C         71.38765       23.16134       45.65529
H         72.90781       25.05821       44.35408
H         72.27947       22.53749       43.05552
H         70.31512       24.52070       44.36703
H         68.93465       22.45550       44.71725
H         69.22644       22.71309       42.97091
H         70.17282       21.46261       43.85990
H         71.89802       22.17585       45.62259
H         72.11091       23.92142       46.01064
H         70.57852       23.12337       46.41569
N         71.21897       23.23686       40.75021
C         70.58842       23.62700       39.48711
C         69.10421       23.27058       39.51221
O         68.64671       22.66549       40.46963
C         71.34947       22.94580       38.32164
C         70.87465       23.29301       36.93196
N         70.93993       24.56392       36.47163
O         70.44606       22.40941       36.20423
H         71.58173       22.27866       40.83618
H         70.67238       24.72926       39.36374
H         71.29048       21.84340       38.45769
H         72.41202       23.25007       38.37937
H         71.31031       25.32178       37.06222
H         70.62468       24.78897       35.51637
N         68.27489       23.68507       38.51232
C         66.83024       23.44266       38.49885
C         66.44780       22.00131       38.14267
O         65.27183       21.68275       38.24809
C         66.13642       24.48679       37.59018
C         66.58229       24.40868       36.14960
C         66.09436       23.40184       35.30567
C         67.50247       25.34225       35.64137
C         66.53317       23.31596       33.98114
C         67.95073       25.24665       34.32211
C         67.47215       24.23195       33.48864
O         67.92128       24.14544       32.22093
H         68.67810       24.29319       37.79096
H         66.44898       23.64726       39.52509
H         66.41250       25.48258       38.00383
H         65.02844       24.41914       37.65021
H         65.37187       22.68364       35.67136
H         67.89517       26.12859       36.27441
H         66.14916       22.53073       33.34231
H         68.67732       25.95816       33.95137
H         67.62418       23.44935       31.61779
N         67.37283       21.07034       37.75727
C         67.07137       19.64870       37.55837
C         67.68333       18.81918       38.68063
O         67.57202       17.60145       38.64630
C         67.57388       19.16845       36.18061
C         66.75271       19.77691       35.04173
C         67.24661       19.31766       33.70136
O         68.49952       19.61377       33.30663
O         66.51063       18.69142       32.95526
H         68.36133       21.34892       37.67701
H         65.97808       19.44967       37.61432
H         67.45680       18.06420       36.10766
H         68.65326       19.41399       36.06984
H         66.82659       20.87314       35.08237
H         65.68562       19.48273       35.16644
N         68.25343       19.42339       39.76026
C         68.72959       18.73536       40.94419
C         67.79142       19.02211       42.11508
O         68.06244       18.53799       43.20487
C         70.15271       19.23343       41.27211
C         71.13969       19.00464       40.11594
C         72.50120       19.57649       40.40689
O         72.76357       20.20198       41.57004
O         73.38059       19.49232       39.56759
H         68.29019       20.44350       39.80623
H         68.74755       17.63428       40.78832
H         70.53033       18.71583       42.18077
H         70.10098       20.32459       41.48546
H         70.76107       19.50094       39.19710
H         71.23111       17.91534       39.91913
N         66.66134       19.78389       41.96594
C         65.74046       20.08141       43.04220
H         64.73458       19.69067       42.77897
H         66.05412       19.63432       44.00709
H         65.67094       21.18281       43.16671
H         66.40848       20.18258       41.05126
Ca        76.29909       21.51983       40.82787
O         74.46553       22.00548       38.80407
H         74.28801       21.50024       37.97211
H         75.09678       22.71852       38.53650
O         74.61998       21.28108       44.06696
H         73.70506       20.93708       43.91987
H         74.91503       20.83119       44.89738

Ca 1.0



