%chk=holoCaM-CaMKII.loop2.water2.frame413.chk
%nprocshared=20
%mem=10GB
%nosave
#b3lyp/svp scf=(tight,noincore,xqc) Test 
#IOP(5/87=12) Density=Current Pop=(MK,readradii) iop(6/33=2) iop(6/42=6)

holoCaM-CaMKII.loop2.water2.frame413 

   -2  1 
C         55.66695       68.44339       34.64060
C         57.14069       68.74111       34.75131
O         57.60061       69.10991       35.82072
H         55.06959       69.35014       34.86378
H         55.39728       68.09156       33.62011
H         55.39400       67.63757       35.35498
N         57.94627       68.56853       33.67113
C         59.39949       68.71327       33.68244
C         59.88946       70.12572       33.97977
O         59.47030       71.05474       33.30349
C         59.94121       68.28670       32.30545
C         61.42814       68.39364       32.26250
O         62.16592       67.75540       33.18801
O         61.96676       69.09570       31.42225
H         57.50024       68.25029       32.79579
H         59.81862       68.01403       34.43898
H         59.49816       68.91884       31.50415
H         59.65890       67.23259       32.10776
N         60.87688       70.32604       34.91133
C         61.51425       71.61955       35.15281
C         63.04225       71.62431       34.92322
O         63.60295       72.70994       34.98212
C         61.21124       72.05894       36.59016
H         61.20211       69.52072       35.46269
H         61.08184       72.38080       34.46784
H         61.64412       71.33604       37.31577
H         61.63448       73.06595       36.79320
H         60.11279       72.10573       36.75182
N         63.79253       70.49002       34.72111
C         65.27071       70.49821       34.61933
C         65.84286       69.66137       33.45582
O         67.05738       69.61349       33.31946
C         65.87794       70.03561       35.96724
C         65.52471       68.62520       36.33543
O         65.76519       68.20419       37.45529
O         64.84769       67.86196       35.46694
H         63.31228       69.58390       34.75617
H         65.62925       71.54056       34.47465
H         65.47309       70.70779       36.75622
H         66.98373       70.14201       35.96485
N         65.04384       68.99422       32.57626
C         65.51747       68.23400       31.41995
C         66.17637       66.87937       31.69321
O         66.56040       66.24123       30.72352
H         64.03653       69.11267       32.66941
H         66.20545       68.87504       30.82762
H         64.63811       68.01240       30.77646
N         66.34730       66.36310       32.94417
C         67.02436       65.08683       33.22053
C         66.27377       63.81346       32.78138
O         66.80095       62.73379       33.01531
C         67.39944       64.99072       34.72041
C         66.24931       64.91823       35.69354
N         66.50957       64.78024       37.01273
O         65.09207       64.97805       35.30928
H         66.06371       66.93911       33.73754
H         67.99882       65.10075       32.68372
H         68.02438       65.87008       34.98875
H         68.02227       64.08152       34.86744
H         67.47994       64.72797       37.35465
H         65.74460       64.71416       37.69491
N         65.08013       63.83710       32.12286
C         64.39932       62.63506       31.64502
C         63.67673       61.80326       32.70311
O         63.06172       60.82167       32.31669
H         64.67829       64.74221       31.85661
H         65.11697       62.00231       31.07822
H         63.60822       62.95207       30.93062
N         63.65380       62.14181       34.02561
C         62.86110       61.43146       35.04052
C         61.84236       62.38423       35.65710
O         61.86157       63.55824       35.32926
C         63.79259       60.86093       36.14152
C         64.68393       59.74441       35.59783
O         64.60786       61.87097       36.68120
H         64.18494       62.96181       34.33212
H         62.28581       60.59507       34.58758
H         63.19030       60.39305       36.95403
H         64.03581       62.42570       37.27273
H         64.05729       58.91229       35.21037
H         65.33933       60.11731       34.78359
H         65.32229       59.34496       36.41528
N         60.93991       61.94851       36.59426
C         60.02827       62.86326       37.28037
C         60.48105       62.96042       38.72251
O         60.39242       61.98687       39.45620
C         58.53266       62.43388       37.16475
C         58.11147       62.29550       35.67870
C         57.63704       63.45999       37.89531
C         56.65504       61.86080       35.48280
H         60.94282       60.95821       36.87671
H         60.10642       63.87289       36.83299
H         58.40595       61.44399       37.65688
H         58.75468       61.52959       35.19504
H         58.25746       63.25838       35.14827
H         57.93150       63.56314       38.95863
H         57.71049       64.45333       37.40421
H         56.57571       63.14378       37.90717
H         56.46039       60.90039       36.00447
H         55.94833       62.63210       35.85220
H         56.45138       61.72798       34.39961
N         61.03540       64.12094       39.17311
C         61.54166       64.29156       40.52931
C         60.39610       64.40616       41.51824
O         59.24106       64.40905       41.10907
C         62.42180       65.56064       40.61405
C         63.64075       65.47484       39.73781
O         63.52911       65.36868       38.52900
O         64.86935       65.53384       40.28595
H         61.14195       64.89545       38.50518
H         62.18041       63.41922       40.79486
H         62.78141       65.69140       41.65478
H         61.82700       66.45588       40.32790
N         60.64385       64.50596       42.85399
C         59.58959       64.68989       43.84011
C         58.90482       66.04755       43.66117
O         57.68669       66.05040       43.62015
C         60.11023       64.44975       45.27539
C         59.00396       64.44616       46.30733
C         57.94545       63.52014       46.22280
C         59.03184       65.35270       47.38082
C         56.93611       63.50850       47.18901
C         58.02177       65.33324       48.34817
C         56.97475       64.41301       48.25186
H         61.62032       64.43300       43.18212
H         58.83566       63.88965       43.66988
H         60.88466       65.18588       45.55158
H         60.59375       63.44913       45.30699
H         57.89841       62.80153       45.41505
H         59.83733       66.07013       47.47425
H         56.12624       62.79376       47.11564
H         58.05245       66.03017       49.17529
H         56.19503       64.39809       49.00226
N         59.58307       67.23683       43.49551
C         58.91801       68.52268       43.27038
C         58.07102       68.61561       42.00125
O         57.47303       69.66388       41.79019
C         60.07885       69.52583       43.17855
C         61.12702       68.87507       44.05353
C         61.01282       67.42479       43.60362
H         58.29372       68.72919       44.16722
H         60.49665       69.51898       42.14348
H         59.81096       70.57245       43.43867
H         62.14646       69.30627       43.96059
H         60.79534       68.94802       45.11490
H         61.46154       67.31578       42.59617
H         61.52498       66.77424       44.32921
N         57.97701       67.58609       41.10804
C         57.19471       67.63215       39.87606
C         56.04191       66.64079       39.89127
O         55.19332       66.73451       39.01669
C         58.08789       67.23913       38.69432
C         59.34961       68.08589       38.57856
C         60.28345       67.50983       37.56727
O         61.50562       68.02683       37.47689
O         59.98634       66.54595       36.87894
H         58.51058       66.72902       41.28062
H         56.77367       68.65115       39.72770
H         57.52115       67.27339       37.73807
H         58.41354       66.18836       38.87192
H         59.89585       68.06576       39.54495
H         59.10955       69.14043       38.32523
N         55.97722       65.62525       40.80114
C         54.92727       64.63208       40.82271
H         54.15525       64.81332       40.04777
H         55.37476       63.63006       40.65064
H         54.44252       64.64267       41.82058
H         56.71562       65.50510       41.49842
Ca        63.00130       66.98548       36.23203
O         62.53260       65.09888       33.04476
H         62.05349       64.25653       32.85224
H         62.57070       65.55378       32.16682
O         59.83957       65.42467       33.94004
H         59.77353       64.98553       34.82075
H         58.93969       65.32014       33.54374

Ca 1.0



