%chk=holoCaM-CaMKII.loop1.water2.frame430.chk
%nprocshared=20
%mem=10GB
%nosave
#b3lyp/svp scf=(tight,noincore,xqc) Test 
#IOP(5/87=12) Density=Current Pop=(MK,readradii) iop(6/33=2) iop(6/42=6)

holoCaM-CaMKII.loop1.water2.frame430 

   0  1 
C         93.06644       69.87834       31.89804
C         94.49781       70.26783       32.09788
O         95.17239       69.65612       32.90546
H         92.41734       70.74744       32.13725
H         92.90570       69.58088       30.84080
H         92.79144       69.03163       32.56133
N         95.02354       71.27997       31.36039
C         96.38574       71.80047       31.47177
C         96.50068       72.68851       32.73049
O         96.65353       73.89519       32.59347
C         96.66514       72.58197       30.15154
C         97.99273       73.26120       30.03971
O         98.94921       73.06237       30.94494
O         98.13232       74.15374       29.22261
H         94.40116       71.69931       30.65074
H         97.12058       70.97038       31.50436
H         95.89848       73.38099       30.06892
H         96.55491       71.91043       29.27385
N         96.41371       72.16622       33.99473
C         96.38841       72.98889       35.20353
C         97.78682       73.33031       35.71699
O         97.86929       74.08719       36.67500
C         95.54427       72.31958       36.31788
C         94.10552       71.99371       35.85857
C         93.22951       71.40460       36.98319
C         92.85297       72.39446       38.10592
N         91.98329       73.47241       37.62595
H         96.32493       71.15616       34.12268
H         95.87258       73.94717       34.96666
H         95.50468       73.01906       37.17846
H         96.03704       71.38024       36.65398
H         94.16424       71.23151       35.05378
H         93.61692       72.88976       35.42557
H         93.76168       70.53456       37.42579
H         92.28320       71.02534       36.53930
H         93.75793       72.82029       38.58694
H         92.30161       71.82821       38.88909
H         92.47313       74.06866       36.92313
H         91.11251       73.07093       37.20689
H         91.71237       74.07801       38.43406
N         98.92409       72.86239       35.11391
C        100.27377       73.30059       35.48759
C        100.85733       74.25703       34.43655
O        101.93190       74.79090       34.67128
C        101.20621       72.11277       35.85606
C        101.46489       71.09352       34.77839
O        100.84365       71.16931       33.59915
O        102.18544       70.13743       35.00781
H         98.82723       72.23981       34.30337
H        100.21760       73.91635       36.41310
H        100.75817       71.57126       36.71920
H        102.18516       72.52131       36.18814
N        100.14340       74.62588       33.32854
C        100.47621       75.77090       32.48839
C        101.70120       75.64474       31.60668
O        102.62625       76.42776       31.76249
H         99.22877       74.19372       33.15169
H        100.57437       76.65939       33.14752
H         99.61973       75.96556       31.80601
N        101.73721       74.72949       30.60253
C        102.79622       74.61877       29.60422
C        102.23207       74.54912       28.17379
O        102.99427       74.25764       27.26177
C        103.69029       73.41119       29.95474
C        102.93589       72.15391       30.27640
O        102.19835       71.64275       29.45758
O        103.06794       71.58920       31.49142
H        100.96750       74.05998       30.52979
H        103.47772       75.49816       29.62614
H        104.27145       73.67997       30.86314
H        104.42182       73.22992       29.13766
N        100.93098       74.85986       27.88484
C        100.36700       74.81284       26.53961
C        100.09317       73.41021       26.02446
O         99.59176       73.30553       24.91366
H        100.31944       75.21635       28.62987
H        101.02466       75.36742       25.83331
H         99.38207       75.32837       26.54962
N        100.38155       72.29157       26.75227
C        100.11081       70.93319       26.28626
C         99.33443       70.12453       27.32646
O         99.20521       70.54329       28.46845
C        101.43933       70.22515       25.90766
C        102.08659       70.83793       24.65680
O        102.34898       70.23560       26.97789
H        100.82847       72.39760       27.66648
H         99.47272       70.96356       25.37614
H        101.22763       69.16466       25.65273
H        102.74981       71.14316       27.03652
H        101.39666       70.75248       23.79151
H        102.33527       71.90839       24.81701
H        103.02326       70.29039       24.41708
N         98.75582       68.94568       26.95243
C         98.00236       68.05105       27.83113
C         98.62655       66.66317       27.74880
O         98.81416       66.15606       26.65131
C         96.49274       68.02287       27.42002
C         95.85383       69.41194       27.69828
C         95.72485       66.92326       28.19060
C         94.38780       69.53626       27.27152
H         98.83427       68.66822       25.96172
H         98.03352       68.39701       28.88640
H         96.42011       67.78816       26.33502
H         96.42105       70.19273       27.14972
H         95.91703       69.63480       28.78680
H         95.75654       67.11049       29.28434
H         94.66767       66.86034       27.86604
H         96.15162       65.92220       27.98236
H         94.03102       70.56675       27.48260
H         94.28365       69.33768       26.18460
H         93.73129       68.84663       27.83972
N         98.88928       65.95894       28.88658
C         99.40829       64.59003       28.89573
C         98.29517       63.61486       29.22653
O         97.19094       64.03856       29.51339
C        100.54201       64.46039       29.94949
C        101.76885       65.28270       29.56343
O        100.06215       64.87830       31.20397
H         98.62326       66.37943       29.78885
H         99.78475       64.30268       27.88971
H        100.86007       63.39567       30.01638
H        100.74008       64.62613       31.88335
H        101.50096       66.35080       29.47040
H        102.55390       65.17260       30.34307
H        102.17988       64.92026       28.59863
N         98.52209       62.27204       29.20724
C         97.52993       61.29186       29.64829
C         97.19145       61.52521       31.10446
O         96.01925       61.51384       31.45369
C         98.04317       59.84077       29.48152
C         98.15306       59.45244       28.00443
O         99.28407       59.68367       30.12251
H         99.45219       61.94033       28.91118
H         96.59624       61.38211       29.04706
H         97.29051       59.16166       29.94910
H         99.45091       58.70819       30.19647
H         98.88277       60.09506       27.47165
H         98.47590       58.39320       27.92054
H         97.15903       59.54747       27.51598
N         98.18505       61.77459       32.00279
C         97.96142       61.97931       33.42716
C         96.91068       63.05612       33.64618
O         95.93386       62.80635       34.33814
C         99.30924       62.32606       34.11062
C         99.25865       62.18183       35.63744
C        100.63271       62.46633       36.26672
C        100.62128       62.16607       37.77257
N        101.91370       62.47627       38.38429
H         99.15204       61.83370       31.64734
H         97.59633       61.01934       33.85465
H         99.64338       63.34517       33.81395
H        100.07535       61.59996       33.75769
H         98.97051       61.13303       35.87137
H         98.50004       62.86844       36.06994
H        100.89987       63.53173       36.09329
H        101.40739       61.82490       35.78984
H        100.39424       61.08681       37.92784
H         99.82870       62.76688       38.26928
H        101.87309       62.24565       39.40359
H        102.67287       61.90985       37.94044
H        102.12447       63.49508       38.27776
N         97.02716       64.26306       33.02802
C         96.04105       65.33090       33.15662
C         94.68526       64.92016       32.59551
O         93.72794       64.86035       33.35449
C         96.54624       66.60848       32.46004
C         97.79904       67.15290       33.16397
C         98.26253       68.43435       32.55631
O         98.31162       69.54444       33.31399
O         98.62467       68.47451       31.39212
H         97.85711       64.41964       32.43888
H         95.91088       65.56701       34.23679
H         95.74605       67.36926       32.50808
H         96.76596       66.40975       31.38881
H         98.63420       66.42475       33.11448
H         97.55833       67.33838       34.23274
N         94.52104       64.64243       31.27420
C         93.24846       64.25597       30.70484
H         92.50139       65.06340       30.85668
H         93.36127       64.08113       29.61243
H         92.88929       63.31753       31.17702
H         95.32019       64.71931       30.64273
Ca        99.86463       71.16450       31.61657
O        101.89057       68.79457       29.97504
H        102.05843       69.02681       29.03160
H        102.71386       68.31898       30.24938
O        101.79992       68.09068       32.72534
H        101.03822       68.49890       33.20539
H        101.49608       67.17208       32.51770

Ca 1.0



