%chk=holoCaM.loop3.water2.frame449.chk
%nprocshared=20
%mem=10GB
%nosave
#b3lyp/svp scf=(tight,noincore,xqc) Test 
#IOP(5/87=12) Density=Current Pop=(MK,readradii) iop(6/33=2) iop(6/42=6)

holoCaM.loop3.water2.frame449 

   0  1 
C         20.45277       65.65407       54.48936
C         20.86449       64.31964       55.02834
O         20.70454       63.32496       54.33569
H         19.67545       66.09494       55.14790
H         21.33312       66.32860       54.45364
H         20.03629       65.55059       53.46442
N         21.38861       64.22517       56.28245
C         21.79184       62.96387       56.88625
C         20.87071       62.69662       58.05068
O         20.82527       63.50288       58.97129
C         23.26474       63.04363       57.31910
C         23.83414       61.72145       57.75031
O         23.10848       60.59082       57.72002
O         25.00061       61.65999       58.08468
H         21.47980       65.08618       56.84489
H         21.69521       62.14299       56.14405
H         23.38038       63.79019       58.13583
H         23.87059       63.38693       56.45392
N         20.03265       61.62300       58.03153
C         18.97656       61.46936       59.02349
C         19.50158       60.98731       60.36865
O         18.74566       61.04172       61.32870
C         17.82214       60.58805       58.49011
C         17.30493       61.00653       57.08801
C         16.88813       62.48449       56.97555
C         16.46737       62.82784       55.53843
N         16.12190       64.24417       55.41498
H         20.06803       60.98880       57.22099
H         18.53653       62.47648       59.19533
H         16.98071       60.63255       59.21599
H         18.16290       59.53210       58.42059
H         16.44217       60.35768       56.82343
H         18.09344       60.81275       56.33233
H         17.74894       63.13896       57.22541
H         16.05510       62.69579       57.68013
H         15.59509       62.20518       55.24151
H         17.31066       62.60417       54.84595
H         16.94384       64.83946       55.67018
H         15.85801       64.44702       54.42361
H         15.31284       64.47341       56.03631
N         20.78032       60.52481       60.52490
C         21.36033       60.18052       61.82189
C         22.56011       61.07959       62.15830
O         23.09421       60.95207       63.25117
C         21.65589       58.66935       61.89255
C         22.66301       58.19352       60.89390
O         23.93220       58.62551       60.96454
O         22.34630       57.37769       60.04267
H         21.38370       60.42338       59.69716
H         20.61809       60.36873       62.62808
H         20.69748       58.12900       61.72297
H         22.01687       58.40165       62.90853
N         22.96953       62.07647       61.31377
C         23.90240       63.13124       61.68040
C         25.36465       62.76571       61.81863
O         26.12149       63.67530       62.13030
H         22.50058       62.20323       60.41027
H         23.55170       63.59648       62.62749
H         23.85922       63.91687       60.89399
N         25.86865       61.51286       61.61551
C         27.29716       61.24022       61.80900
C         28.19478       61.94216       60.78345
O         29.40413       61.92449       60.96994
C         27.59404       59.72470       61.86416
C         27.49648       59.01904       60.53201
N         28.55689       58.33777       60.03722
O         26.45422       59.04717       59.90005
H         25.22693       60.74478       61.38538
H         27.55134       61.63040       62.82076
H         26.89519       59.25002       62.58679
H         28.62187       59.58683       62.26593
H         29.44669       58.28972       60.55494
H         28.48733       57.84509       59.13505
N         27.68404       62.55529       59.67290
C         28.48273       63.26383       58.68373
C         28.48394       62.60052       57.31397
O         29.08270       63.16831       56.41343
H         26.67299       62.53484       59.50856
H         29.54395       63.34517       59.00507
H         28.08199       64.29645       58.59492
N         27.91899       61.37307       57.09480
C         28.06543       60.62980       55.84325
C         26.72086       60.15289       55.31828
O         25.96325       59.58916       56.09060
C         28.92943       59.37140       56.07912
C         30.33479       59.66444       56.55509
C         30.57439       60.16475       57.84791
C         31.42978       59.40651       55.71273
C         31.87799       60.40974       58.28426
C         32.73392       59.65397       56.15043
C         32.96195       60.15623       57.43936
O         34.21466       60.39271       57.87729
H         27.45538       60.88646       57.87387
H         28.58308       61.22992       55.06255
H         28.98132       58.83301       55.10567
H         28.44625       58.68895       56.80933
H         29.75918       60.35464       58.53016
H         31.27662       59.01560       54.71445
H         32.04430       60.79147       59.28383
H         33.56556       59.45146       55.48771
H         34.99215       60.22315       57.32658
N         26.40974       60.24031       53.98800
C         25.20752       59.63175       53.41019
C         25.59472       58.52066       52.43249
O         26.21924       58.78171       51.41563
C         24.25683       60.69370       52.77986
C         24.94809       61.59599       51.71965
C         23.63749       61.53198       53.90974
C         23.99152       62.56247       51.01680
H         27.08228       60.69221       53.35167
H         24.61459       59.13606       54.20885
H         23.42246       60.14271       52.28940
H         25.39170       60.96901       50.92326
H         25.76005       62.19009       52.19052
H         24.41721       62.11573       54.44084
H         22.86726       62.22129       53.51957
H         23.12591       60.86729       54.63843
H         23.55577       63.29630       51.72379
H         24.55100       63.13797       50.24929
H         23.17615       61.99995       50.51450
N         25.26743       57.22547       52.72010
C         25.59351       56.08354       51.86448
C         24.76042       56.06868       50.58239
O         23.94256       56.95457       50.37804
C         25.36515       54.77648       52.65773
O         24.01336       54.63873       52.99971
H         24.79885       57.03553       53.61811
H         26.67568       56.11923       51.60934
H         25.98077       54.80491       53.58409
H         25.69349       53.89953       52.05848
H         23.90843       53.72123       53.36256
N         24.89582       55.04055       49.69210
C         24.07350       54.87043       48.49469
C         22.60211       54.80058       48.85112
O         21.81160       55.50201       48.23764
C         24.46833       53.58327       47.75916
H         25.60085       54.31580       49.89305
H         24.24427       55.71957       47.79577
H         24.31806       52.69300       48.40751
H         23.85179       53.46274       46.84198
H         25.53594       53.62930       47.45767
N         22.17008       53.98664       49.85521
C         20.77980       53.92187       50.29329
C         20.28668       55.28654       50.74389
O         19.26538       55.74274       50.24876
C         20.63725       52.92042       51.44846
H         22.87040       53.41193       50.34978
H         20.14400       53.55640       49.45597
H         21.25675       53.22351       52.31998
H         19.57605       52.85524       51.77190
H         20.96333       51.91108       51.11865
N         20.97263       55.99450       51.68612
C         20.52269       57.28345       52.21350
C         20.47694       58.39385       51.16673
O         19.96083       59.45665       51.48506
C         21.43842       57.74704       53.36564
C         21.42284       56.78214       54.55971
C         22.32200       57.29100       55.64082
O         22.08376       58.49375       56.19339
O         23.26631       56.62038       56.02575
H         21.83487       55.57512       52.05859
H         19.49218       57.14720       52.61148
H         21.09607       58.74303       53.72608
H         22.47672       57.85541       52.98140
H         21.75912       55.76871       54.25889
H         20.39110       56.70310       54.96294
N         21.00486       58.24367       49.92005
C         20.97158       59.27317       48.90175
H         20.45210       60.19296       49.24191
H         22.01068       59.53948       48.61620
H         20.44257       58.88289       48.00693
H         21.47255       57.37010       49.66931
Ca        24.18464       58.64667       58.12319
O         26.62430       56.70843       56.40867
H         27.42176       56.57499       55.83817
H         25.92922       57.03401       55.78491
O         24.69604       55.70083       58.83371
H         24.87279       55.41959       59.76625
H         25.35666       55.19976       58.29320

Ca 1.0



