%chk=holoCaM.loop4.water3.frame28.chk
%nprocshared=20
%mem=10GB
%nosave
#b3lyp/svp scf=(tight,noincore,xqc) Test 
#IOP(5/87=12) Density=Current Pop=(MK,readradii) iop(6/33=2) iop(6/42=6)

holoCaM.loop4.water3.frame28 

   -3  1 
C         82.56242      113.66183       24.17434
C         81.88125      113.75854       22.83963
O         80.93823      113.01798       22.60772
H         83.39879      114.38789       24.25920
H         81.82765      113.88454       24.97757
H         82.96290      112.63800       24.32084
N         82.28518      114.68375       21.92545
C         81.62367      114.90574       20.64638
C         82.62960      114.87805       19.50283
O         83.62758      115.58275       19.57790
C         80.95742      116.28588       20.68106
C         80.29995      116.58536       19.36748
O         79.21323      115.91725       18.91672
O         80.77400      117.46646       18.66850
H         83.06459      115.31300       22.17511
H         80.82094      114.16233       20.46796
H         81.74499      117.04902       20.87656
H         80.21462      116.36191       21.49755
N         82.36813      114.16859       18.36506
C         83.22447      114.20862       17.17924
C         82.52822      114.88473       15.98998
O         83.18438      115.03975       14.96936
C         83.75304      112.78017       16.82943
C         82.63252      111.84890       16.28713
C         84.47915      112.18861       18.05531
C         83.09570      110.41762       15.99397
H         81.50497      113.61493       18.32360
H         84.11892      114.83469       17.39056
H         84.51115      112.88082       16.02064
H         82.24076      112.27726       15.34028
H         81.78676      111.79816       16.98879
H         85.27495      112.88402       18.39756
H         83.77317      112.01267       18.89453
H         84.97956      111.23130       17.80540
H         83.94171      110.41913       15.27523
H         83.40142      109.89715       16.92581
H         82.25569      109.83606       15.55857
N         81.22183      115.30784       16.03288
C         80.54081      115.94718       14.90374
C         79.95468      117.32127       15.25714
O         80.34731      118.28935       14.62036
C         79.51506      114.99283       14.24102
C         78.43350      114.34811       15.07374
O         78.36420      114.48601       16.40716
O         77.62071      113.62843       14.51689
H         80.67230      115.14746       16.88343
H         81.27332      116.14090       14.08785
H         80.08758      114.15251       13.79102
H         79.03055      115.55062       13.40991
N         79.02437      117.49428       16.24125
C         78.42901      118.77582       16.59983
C         76.90600      118.75804       16.59708
O         76.33085      119.79781       16.88745
H         78.74076      116.69304       16.79647
H         78.77495      119.58313       15.91905
H         78.75499      119.04073       17.62828
N         76.17539      117.64239       16.28651
C         74.71016      117.64031       16.23425
C         74.01808      117.92204       17.57377
O         72.81698      118.15394       17.55661
C         74.18358      116.32229       15.62146
C         74.51266      115.08001       16.41153
O         75.23817      115.13806       17.54401
O         74.12508      113.99593       16.00800
H         76.66849      116.78148       16.01593
H         74.41711      118.45822       15.53833
H         74.61914      116.20625       14.60508
H         73.07973      116.39001       15.51387
N         74.69321      117.92846       18.75887
C         74.10367      118.32559       20.03149
C         74.13818      117.25373       21.10794
O         73.86521      117.60321       22.24783
H         75.68814      117.68846       18.76063
H         73.05046      118.66687       19.92240
H         74.68891      119.19650       20.39676
N         74.38396      115.93496       20.83985
C         74.33267      114.88918       21.86422
C         75.60629      113.99869       21.83732
O         75.82247      113.33269       20.62685
C         73.01753      114.08438       21.71085
C         71.81038      114.93225       22.15705
C         70.52791      114.14510       22.12510
N         70.02336      113.69213       20.95589
O         69.92978      113.92443       23.16828
H         74.52130      115.64312       19.86442
H         74.32481      115.33940       22.88192
H         73.01910      113.19623       22.37037
H         72.90734      113.72355       20.66561
H         71.69816      115.83725       21.52474
H         71.98922      115.26214       23.20636
H         70.50523      113.88406       20.06625
H         69.14089      113.15978       20.94073
N         75.69251      113.10303       23.01199
C         76.59503      111.93642       22.95563
C         75.91335      110.74028       22.29217
O         74.80548      110.38969       22.67438
C         77.02342      111.56791       24.40154
C         77.96633      110.35075       24.41971
C         77.72870      112.75598       25.07727
H         74.78579      112.86461       23.46862
H         77.52320      112.20100       22.40841
H         76.11762      111.31594       24.99741
H         77.46691      109.45359       23.99835
H         78.88581      110.55676       23.83011
H         78.25541      110.10661       25.46373
H         77.05973      113.64090       25.12369
H         78.01105      112.49261       26.11839
H         78.64842      113.03415       24.51888
N         76.56911      110.03081       21.32931
C         76.02483      108.86634       20.63338
C         76.86307      107.61736       20.93228
O         77.83713      107.70918       21.66478
C         76.02741      109.22288       19.12810
C         75.37309      108.22140       18.21340
N         74.06431      107.91033       18.35272
O         76.02554      107.70230       17.32038
H         77.51609      110.33224       21.06801
H         74.98444      108.66812       20.96921
H         77.08167      109.38722       18.80599
H         75.47576      110.17786       19.00289
H         73.49383      108.34870       19.08956
H         73.61891      107.23302       17.71655
N         76.51334      106.40158       20.41633
C         77.30422      105.17642       20.56593
C         78.64547      105.27879       19.84780
O         79.63940      104.82773       20.39700
C         76.48613      103.92932       20.14649
C         75.95566      103.92361       18.73051
C         76.76790      103.54504       17.64975
C         74.61208      104.26251       18.48920
C         76.24290      103.51206       16.35121
C         74.09654      104.24667       17.19242
C         74.90668      103.87018       16.11896
O         74.38950      103.85234       14.87399
H         75.62942      106.34121       19.89869
H         77.50794      105.01145       21.64886
H         75.61662      103.89717       20.83973
H         77.05188      102.99012       20.33521
H         77.80002      103.26038       17.81168
H         73.96309      104.55227       19.30635
H         76.87556      103.20986       15.52598
H         73.06344      104.52400       17.02452
H         74.91232      103.59438       14.10181
N         78.76032      105.90721       18.64079
C         80.04288      106.13255       17.96015
C         80.97307      107.08425       18.72529
O         82.09515      107.27613       18.27739
C         79.80054      106.71580       16.54593
C         79.10481      105.70263       15.62365
C         78.80139      106.25468       14.25787
O         79.09483      107.53042       13.93711
O         78.26665      105.53702       13.42792
H         77.89750      106.25013       18.19777
H         80.56911      105.15820       17.85223
H         80.77151      106.97940       16.07080
H         79.19230      107.64442       16.63571
H         78.14837      105.38295       16.07174
H         79.76409      104.81388       15.50994
N         80.58244      107.72270       19.86485
C         81.40500      108.66444       20.61869
C         81.67610      108.17787       22.03768
O         82.37181      108.87852       22.76031
C         80.66343      110.01089       20.67757
C         80.45590      110.58993       19.27476
C         79.59192      111.81565       19.26768
O         79.06418      112.29739       20.40627
O         79.33993      112.36824       18.21003
H         79.63436      107.57670       20.20883
H         82.39303      108.81070       20.12932
H         81.23327      110.74684       21.28509
H         79.68446      109.84008       21.16903
H         79.96260      109.84662       18.61470
H         81.45723      110.82853       18.87082
N         81.17578      106.99952       22.51064
C         81.41862      106.49873       23.84693
H         82.05883      107.17745       24.44691
H         80.44808      106.37137       24.37087
H         81.91948      105.51019       23.77786
H         80.59045      106.41013       21.91309
Ca        77.53228      114.57567       19.69634
O         77.46836      117.44760       20.56354
H         77.70563      117.66502       19.62835
H         77.19295      118.31640       20.94381
O         76.46100      112.10572       17.43882
H         76.22443      111.26710       16.97038
H         76.40203      112.79578       16.73480
O         78.19329      115.19663       22.44031
H         78.67771      114.35561       22.24789
H         78.58968      115.52829       23.28242

Ca 1.0



