%chk=holoCaM-CaMKII.loop4.water2.frame112.chk
%nprocshared=20
%mem=10GB
%nosave
#b3lyp/svp scf=(tight,noincore,xqc) Test 
#IOP(5/87=12) Density=Current Pop=(MK,readradii) iop(6/33=2) iop(6/42=6)

holoCaM-CaMKII.loop4.water2.frame112 

   -3  1 
C         52.33619       28.48111       72.00370
C         53.18532       28.40545       73.23478
O         53.45941       29.43665       73.83085
H         51.35855       28.94047       72.25924
H         52.84968       29.09955       71.23990
H         52.15004       27.47162       71.57911
N         53.62930       27.20370       73.68810
C         54.41298       27.06638       74.90263
C         55.76797       27.74207       74.77820
O         56.47761       27.44638       73.82609
C         54.64523       25.58215       75.22124
C         55.18527       25.41879       76.60337
O         55.44527       24.30551       77.01372
O         55.23605       26.47413       77.43800
H         53.36201       26.35045       73.17214
H         53.81892       27.49889       75.73222
H         55.32710       25.12353       74.47324
H         53.67840       25.03204       75.20312
N         56.22286       28.59697       75.74435
C         57.54198       29.21717       75.69298
C         58.45855       28.61841       76.76528
O         59.50026       28.09243       76.39671
C         57.44556       30.78128       75.69204
C         57.07194       31.40006       77.06342
C         56.46735       31.22748       74.58464
C         56.99478       32.92769       77.06656
H         55.62708       28.79391       76.55818
H         58.02183       28.97335       74.71796
H         58.45494       31.16993       75.42997
H         57.86600       31.14451       77.79309
H         56.10385       31.00061       77.41777
H         56.48191       32.32650       74.44608
H         56.74899       30.77489       73.61060
H         55.42918       30.92142       74.83502
H         56.16029       33.29174       76.43410
H         56.80390       33.28125       78.10207
H         57.95290       33.36436       76.71336
N         58.15573       28.65113       78.10121
C         59.08745       28.17653       79.13065
C         59.19959       26.64867       79.22432
O         60.01041       26.17733       80.00984
C         58.77633       28.82227       80.50294
C         57.48496       28.41107       81.15165
O         57.15397       28.93970       82.34484
O         56.74062       27.60158       80.62740
H         57.27942       29.10011       78.40125
H         60.09430       28.57522       78.86973
H         58.76475       29.92729       80.37322
H         59.59965       28.57715       81.20841
N         58.46264       25.81493       78.43433
C         58.64541       24.37102       78.39353
C         58.15562       23.61932       79.61564
O         58.95050       22.90825       80.21414
H         57.80748       26.21504       77.75169
H         59.71953       24.14795       78.20426
H         58.07544       23.96698       77.53123
N         56.84178       23.66272       79.99431
C         56.27274       22.80407       81.03783
C         55.12633       21.91270       80.53339
O         54.71497       21.03578       81.27943
C         55.92619       23.60673       82.31840
C         54.80157       24.61410       82.29867
O         54.01529       24.80844       81.23413
O         54.56296       25.24500       83.31492
H         56.22977       24.30404       79.49054
H         57.05920       22.08930       81.36297
H         56.84967       24.14073       82.62740
H         55.67152       22.87790       83.11825
N         54.57050       22.05707       79.29222
C         53.54629       21.18096       78.73661
C         52.19520       21.85497       78.61937
O         51.28480       21.23079       78.09167
H         54.87064       22.82291       78.69025
H         53.40361       20.27314       79.35888
H         53.88610       20.84767       77.73085
N         51.96527       23.09040       79.14751
C         50.65794       23.73289       79.18059
C         50.72314       25.10396       78.53986
O         51.80157       25.54384       78.15952
C         50.21886       23.87287       80.65488
C         50.06924       22.50683       81.34290
C         49.66314       22.65771       82.78598
N         50.47882       23.27112       83.67625
O         48.59083       22.20689       83.15977
H         52.73371       23.58693       79.61109
H         49.90187       23.13105       78.62978
H         49.24350       24.40192       80.71608
H         50.97802       24.47803       81.19476
H         51.02561       21.94234       81.31003
H         49.29717       21.92125       80.79708
H         51.39491       23.64379       83.38687
H         50.19830       23.36408       84.66389
N         49.58575       25.84302       78.39317
C         49.58102       27.19863       77.86515
C         48.98992       28.12196       78.91502
O         47.80476       28.02957       79.20626
C         48.82858       27.25500       76.50677
C         48.71055       28.68974       75.96547
C         49.56179       26.39394       75.46283
H         48.68231       25.43294       78.67775
H         50.61586       27.52932       77.66586
H         47.79924       26.85523       76.64217
H         48.17356       28.68927       74.99274
H         48.12403       29.32332       76.65919
H         49.71339       29.14184       75.81687
H         49.62961       25.33757       75.79554
H         49.01893       26.41242       74.49418
H         50.59261       26.77921       75.29548
N         49.78560       29.03819       79.53702
C         49.29684       30.01529       80.51219
C         48.37025       30.99647       79.79347
O         48.36210       30.99453       78.57604
C         50.54953       30.73165       81.10421
C         50.40780       31.69269       82.26049
N         51.50690       32.33974       82.71541
O         49.33718       31.88155       82.80913
H         50.78981       29.03752       79.30161
H         48.75760       29.46732       81.31542
H         51.05621       31.26773       80.27575
H         51.24294       29.94423       81.46775
H         52.42666       32.18841       82.27512
H         51.44185       32.99698       83.50659
N         47.56288       31.86889       80.45493
C         46.80699       32.91629       79.76771
C         47.76860       33.87584       79.07977
O         47.54760       34.23865       77.93356
C         45.94082       33.69774       80.77933
C         45.11189       34.77035       80.10586
C         44.14936       34.42781       79.13907
C         45.29519       36.12353       80.43758
C         43.39015       35.42045       78.51298
C         44.53328       37.11471       79.81061
C         43.57826       36.76557       78.84475
O         42.83750       37.71056       78.23128
H         47.49073       31.80667       81.47618
H         46.12655       32.45415       79.01904
H         46.60515       34.14834       81.55023
H         45.25176       32.99547       81.29632
H         43.98474       33.39303       78.86754
H         46.02953       36.41385       81.17851
H         42.65430       35.14277       77.76857
H         44.68683       38.15320       80.07553
H         42.93554       38.65233       78.43165
N         48.88450       34.29160       79.74029
C         49.89273       35.20041       79.19835
C         50.41502       34.68890       77.86571
O         50.37695       35.42402       76.88902
C         51.05603       35.35759       80.20891
C         50.59188       36.00095       81.53565
C         51.68788       36.12474       82.55893
O         51.40512       36.66389       83.76011
O         52.82092       35.73067       82.33024
H         49.03797       33.89597       80.67774
H         49.44123       36.20401       79.03296
H         51.84185       36.00701       79.76350
H         51.50262       34.35856       80.41395
H         49.79000       35.40054       82.00876
H         50.18588       37.01281       81.32367
N         50.86442       33.41064       77.74869
C         51.30678       32.80933       76.49078
C         50.21221       32.91348       75.43708
O         50.48019       33.42144       74.35738
C         51.71129       31.33563       76.72560
C         52.97136       31.23890       77.61130
C         53.36710       29.82455       77.92567
O         54.34041       29.61174       78.62904
O         52.65862       28.78513       77.45651
H         50.83831       32.82576       78.59506
H         52.20308       33.34543       76.10492
H         51.93752       30.85016       75.75048
H         50.86422       30.79245       77.19995
H         52.80805       31.75597       78.57763
H         53.81444       31.73716       77.08616
N         48.94415       32.50094       75.70544
C         47.83428       32.61809       74.78250
H         47.06559       33.29051       75.22111
H         48.14101       33.03102       73.79974
H         47.37998       31.61786       74.62515
H         48.73826       32.11944       76.62905
Ca        54.67922       26.07232       79.53559
O         52.08969       27.30063       81.43856
H         52.57707       27.65555       82.22345
H         51.40769       26.70041       81.82954
O         53.88319       29.91198       81.47276
H         54.39978       30.69330       81.15309
H         54.56535       29.22472       81.67532

Ca 1.0



