%chk=holoCaM-CaMKII.loop4.water2.frame174.chk
%nprocshared=20
%mem=10GB
%nosave
#b3lyp/svp scf=(tight,noincore,xqc) Test 
#IOP(5/87=12) Density=Current Pop=(MK,readradii) iop(6/33=2) iop(6/42=6)

holoCaM-CaMKII.loop4.water2.frame174 

   -3  1 
C         -2.37892       50.46797       18.65246
C         -3.05785       49.42762       19.49337
O         -3.08238       48.27216       19.10010
H         -1.31366       50.19126       18.51032
H         -2.87952       50.53295       17.66447
H         -2.41970       51.46833       19.13421
N         -3.63602       49.77313       20.67458
C         -4.29311       48.82405       21.56458
C         -5.44989       48.11813       20.86256
O         -6.29975       48.77487       20.27830
C         -4.73635       49.55935       22.84235
C         -5.36335       48.65175       23.85253
O         -6.58787       48.94097       24.31690
O         -4.76151       47.68152       24.28531
H         -3.59142       50.76359       20.96229
H         -3.54586       48.06998       21.88227
H         -5.44877       50.37382       22.58791
H         -3.83852       50.01425       23.31604
N         -5.53465       46.75749       20.91405
C         -6.54701       45.94765       20.24355
C         -7.54569       45.45342       21.27796
O         -8.72293       45.76799       21.16962
C         -5.83512       44.75833       19.50437
C         -4.88876       45.22844       18.36931
C         -6.80445       43.67511       18.99601
C         -5.58766       45.90536       17.18770
H         -4.85023       46.25798       21.49707
H         -7.12555       46.55523       19.51516
H         -5.18916       44.23996       20.24637
H         -4.33604       44.34534       17.97766
H         -4.13359       45.92685       18.78316
H         -7.36784       43.22726       19.84141
H         -7.53026       44.07962       18.26476
H         -6.22843       42.84788       18.52479
H         -6.31335       45.21800       16.70672
H         -6.10768       46.83025       17.50610
H         -4.82992       46.18128       16.42480
N         -7.14438       44.64027       22.28954
C         -8.05531       44.03809       23.26378
C         -8.54839       45.00497       24.35586
O         -9.29765       44.55875       25.21384
C         -7.41874       42.74413       23.83062
C         -6.11316       42.96258       24.53501
O         -5.63961       44.21048       24.66675
O         -5.48792       42.01518       24.98164
H         -6.15550       44.35709       22.29281
H         -8.95806       43.67645       22.72300
H         -7.22791       42.06083       22.97322
H         -8.13308       42.24001       24.51607
N         -8.25124       46.34027       24.35489
C         -8.91922       47.29738       25.23422
C         -8.32887       47.47526       26.62381
O         -8.88503       48.28708       27.35152
H         -7.69118       46.72702       23.58477
H         -9.99839       47.03750       25.31177
H         -8.89802       48.29616       24.75086
N         -7.24485       46.78490       27.09129
C         -6.78871       46.93993       28.48050
C         -5.97168       48.20330       28.73588
O         -5.78239       48.53065       29.89890
C         -6.10938       45.65818       29.00339
C         -4.86076       45.24645       28.28511
O         -4.41193       44.12709       28.47283
O         -4.27572       46.03686       27.37300
H         -6.81334       46.06940       26.48893
H         -7.70228       47.02847       29.11095
H         -6.84938       44.83928       28.86222
H         -5.88983       45.73531       30.08916
N         -5.45051       48.95845       27.72544
C         -4.76886       50.22909       27.94866
C         -3.27860       50.17729       27.69388
O         -2.65866       51.23140       27.73828
H         -5.54441       48.63768       26.75266
H         -4.90184       50.59107       28.99022
H         -5.23459       50.98309       27.27770
N         -2.61980       49.00493       27.47156
C         -1.17987       48.91467       27.25000
C         -0.91906       48.31316       25.88153
O         -1.87292       47.90619       25.22800
C         -0.53188       48.08745       28.38238
C         -0.78818       48.73109       29.75942
C         -0.13245       47.95972       30.87682
N         -0.86864       47.44402       31.89062
O          1.08086       47.81499       30.87780
H         -3.14817       48.12600       27.47502
H         -0.72169       49.92797       27.25192
H          0.56423       48.02230       28.20940
H         -0.95044       47.05785       28.38152
H         -1.88329       48.78637       29.94328
H         -0.38441       49.76601       29.76514
H         -1.89230       47.56010       31.91811
H         -0.41229       46.93025       32.65934
N          0.33824       48.28326       25.34577
C          0.58888       47.80883       23.98701
C          1.59480       46.67093       24.00354
O          2.76390       46.89810       24.28540
C          1.03818       48.98416       23.07340
C          1.22617       48.52648       21.61706
C          0.00412       50.12465       23.10178
H          1.12838       48.66354       25.89045
H         -0.35067       47.42309       23.54913
H          2.00545       49.38839       23.44619
H          1.55424       49.37926       20.98530
H          2.00295       47.73991       21.54577
H          0.27250       48.13182       21.20566
H         -0.11305       50.52708       24.12992
H          0.33641       50.96321       22.45352
H         -0.98634       49.76771       22.74386
N          1.18723       45.40222       23.71638
C          2.08805       44.24999       23.64405
C          2.89446       44.32539       22.34473
O          2.60903       45.18820       21.53362
C          1.20474       42.97303       23.75355
C          1.89871       41.63682       23.90274
N          1.77808       40.92118       25.04585
O          2.52988       41.16281       22.97560
H          0.17849       45.24651       23.56281
H          2.76251       44.27246       24.52857
H          0.50513       42.91990       22.89037
H          0.59025       43.11802       24.66848
H          1.23326       41.27681       25.84435
H          2.23175       39.99932       25.13208
N          3.91248       43.46425       22.06665
C          4.61311       43.43630       20.77754
C          3.64080       43.12398       19.64341
O          3.62046       43.84347       18.65542
C          5.72762       42.36807       20.80918
C          6.47441       42.27986       19.49596
C          7.19325       43.38237       19.00100
C          6.45186       41.08826       18.75131
C          7.87247       43.29351       17.78165
C          7.13172       41.00189       17.53327
C          7.84433       42.10556       17.04376
O          8.50345       42.03600       15.86956
H          4.19685       42.79551       22.79488
H          5.08973       44.42483       20.59380
H          5.27029       41.38361       21.05283
H          6.45127       42.61101       21.61695
H          7.22852       44.31101       19.55609
H          5.90440       40.22552       19.10984
H          8.42103       44.14980       17.40958
H          7.10236       40.07711       16.97095
H          8.50834       41.23290       15.32921
N          2.78091       42.07369       19.75731
C          1.76613       41.68910       18.77640
C          0.96363       42.89179       18.32030
O          0.86947       43.13531       17.12532
C          0.83721       40.63492       19.43326
C         -0.28769       40.12866       18.52270
C         -1.11877       39.10627       19.24756
O         -1.77486       39.44297       20.37570
O         -1.20424       37.96685       18.81875
H          2.81925       41.54054       20.63409
H          2.26093       41.23882       17.88774
H          0.38108       41.07459       20.34986
H          1.45703       39.76521       19.74461
H          0.15487       39.67821       17.60848
H         -0.95177       40.96771       18.22359
N          0.37699       43.69838       19.23825
C         -0.41126       44.87864       18.90342
C          0.42337       45.86746       18.10178
O          0.00030       46.24982       17.01963
C         -0.98850       45.48618       20.20045
C         -1.98310       44.48742       20.83724
C         -2.59112       44.95151       22.12263
O         -3.41432       44.24401       22.67761
O         -2.24790       46.12501       22.67836
H          0.52360       43.46162       20.23083
H         -1.28022       44.58393       18.27138
H         -1.53326       46.42348       19.96404
H         -0.16456       45.72514       20.90783
H         -1.49284       43.51749       21.05349
H         -2.80052       44.29895       20.11296
N          1.64901       46.26593       18.53766
C          2.53883       47.12610       17.78345
H          3.46769       46.56471       17.54188
H          2.08883       47.47431       16.83069
H          2.80894       48.00994       18.39687
H          1.99725       45.90471       19.42768
Ca        -3.72648       44.88893       25.56961
O         -1.09777       44.73049       26.89465
H         -1.74564       44.80186       27.64012
H         -0.21731       44.65287       27.33913
O         -1.97605       42.48001       24.70045
H         -1.59732       41.85730       24.03117
H         -2.95388       42.36764       24.61031

Ca 1.0



