%chk=holoCaM.loop2.water2.frame132.chk
%nprocshared=20
%mem=10GB
%nosave
#b3lyp/svp scf=(tight,noincore,xqc) Test 
#IOP(5/87=12) Density=Current Pop=(MK,readradii) iop(6/33=2) iop(6/42=6)

holoCaM.loop2.water2.frame132 

   -2  1 
C          9.45715       86.70439       -8.58371
C          9.98382       85.33871       -8.23930
O         10.57327       85.17969       -7.18160
H          8.73211       87.02260       -7.80291
H         10.28652       87.43722       -8.63237
H          8.92286       86.70148       -9.55831
N          9.74630       84.28620       -9.06756
C         10.04828       82.90388       -8.71287
C         11.53055       82.56005       -8.80458
O         12.17507       83.00638       -9.74301
C          9.23909       81.96796       -9.63019
C          9.19325       80.58575       -9.07148
O          9.24011       79.62418       -9.81698
O          9.04382       80.41750       -7.74104
H          9.20140       84.46504       -9.92611
H          9.66819       82.74844       -7.67894
H          9.62490       81.97667      -10.67527
H          8.19001       82.32075       -9.65430
N         12.11343       81.69881       -7.90952
C         13.51728       81.28830       -7.98106
C         13.74208       79.77274       -8.09208
O         14.88652       79.40133       -8.31536
C         14.24611       81.79591       -6.73164
H         11.54207       81.33285       -7.13962
H         13.99654       81.75108       -8.87015
H         13.81113       81.33315       -5.81792
H         15.32752       81.54288       -6.77485
H         14.14840       82.89872       -6.65171
N         12.76477       78.83887       -7.87068
C         13.05157       77.39427       -7.80910
C         12.04289       76.50455       -8.54344
O         12.27121       75.30339       -8.58836
C         13.20088       76.96893       -6.32850
C         12.01268       77.36636       -5.50528
O         10.79359       76.90412       -5.80988
O         12.13010       78.21140       -4.63206
H         11.83462       79.16575       -7.58611
H         14.02975       77.18046       -8.29200
H         14.09382       77.48804       -5.91683
H         13.37758       75.87508       -6.24441
N         10.92321       76.99246       -9.14296
C          9.97312       76.16111       -9.86984
C          9.33040       75.10103       -8.99861
O          9.43284       73.92669       -9.32294
H         10.74005       77.99699       -9.10891
H         10.48716       75.68475      -10.73330
H          9.16310       76.80634      -10.27675
N          8.62048       75.45563       -7.89188
C          7.88983       74.51935       -7.04156
C          6.38723       74.82398       -7.05447
O          5.65590       74.22533       -6.27810
C          8.49133       74.50039       -5.61211
C          8.36139       75.75985       -4.78849
N          8.87079       75.79452       -3.53613
O          7.80902       76.74999       -5.23443
H          8.56670       76.45110       -7.65718
H          8.00930       73.47918       -7.41671
H          9.57240       74.25090       -5.69695
H          8.00297       73.68287       -5.03928
H          9.35104       74.97427       -3.13866
H          8.78733       76.64499       -2.96215
N          5.84892       75.69630       -7.96154
C          4.42792       75.98884       -8.08539
C          3.85206       76.89926       -7.01263
O          2.67230       77.20462       -7.11350
H          6.45517       76.11250       -8.67986
H          3.85730       75.03635       -8.14000
H          4.27380       76.52413       -9.04754
N          4.59029       77.37471       -5.96886
C          4.05293       78.23755       -4.91565
C          4.88422       79.50925       -4.74262
O          5.89657       79.67715       -5.40538
C          4.01101       77.43629       -3.58555
C          3.00620       76.28515       -3.67124
O          5.27710       76.91245       -3.27221
H          5.56686       77.08230       -5.88292
H          3.01647       78.56220       -5.15624
H          3.65546       78.07481       -2.74718
H          5.85077       77.67491       -3.00013
H          1.99050       76.68284       -3.88649
H          3.28793       75.56476       -4.46722
H          2.96945       75.74485       -2.70180
N          4.51921       80.42525       -3.79902
C          5.29357       81.60384       -3.42378
C          5.95920       81.31637       -2.08601
O          5.29201       80.93169       -1.13500
C          4.38980       82.89344       -3.42483
C          4.39758       83.51484       -4.85091
C          4.84615       83.94258       -2.38484
C          3.51221       84.75309       -5.02872
H          3.67504       80.23521       -3.23830
H          6.12718       81.78081       -4.13344
H          3.35506       82.61096       -3.12873
H          4.06868       82.75096       -5.58654
H          5.44007       83.81588       -5.10422
H          4.15960       84.81202       -2.35942
H          4.79811       83.51957       -1.35944
H          5.87810       84.29097       -2.59109
H          2.45154       84.50541       -4.82150
H          3.83433       85.59118       -4.37721
H          3.59899       85.11644       -6.07516
N          7.29697       81.55226       -1.95161
C          8.05603       81.39539       -0.71885
C          8.22902       82.75944       -0.07860
O          7.72392       83.72486       -0.62870
C          9.42889       80.76380       -1.03459
C          9.30961       79.41495       -1.68898
O          8.76201       79.29813       -2.77438
O          9.84122       78.33095       -1.09346
H          7.79825       81.97041       -2.74583
H          7.50124       80.75666        0.00327
H         10.01081       80.65409       -0.09575
H         10.00037       81.43325       -1.71497
N          8.86242       82.92800        1.11591
C          8.90284       84.23055        1.77280
C          9.74224       85.25753        1.00328
O          9.17945       86.29318        0.68297
C          9.29913       84.12116        3.26155
C          9.14079       85.44986        3.96723
C          7.87600       86.06432        4.05241
C         10.25043       86.08915        4.54491
C          7.72861       87.29529        4.69441
C         10.09688       87.32151        5.18905
C          8.83790       87.92426        5.26222
H          9.23860       82.10102        1.60553
H          7.85305       84.59875        1.79332
H         10.32609       83.74291        3.38122
H          8.63311       83.38527        3.76186
H          7.00021       85.59424        3.62387
H         11.23352       85.63823        4.49365
H          6.75261       87.76023        4.75106
H         10.95467       87.81084        5.63089
H          8.72051       88.87802        5.75959
N         11.06277       85.07998        0.65629
C         11.83864       86.05771       -0.11066
C         11.12762       86.50965       -1.36959
O         11.08502       87.69865       -1.65463
C         13.10836       85.28633       -0.50316
C         13.28706       84.36654        0.67490
C         11.85609       83.89427        0.91724
H         12.09277       86.92061        0.54511
H         12.90744       84.62403       -1.37677
H         13.97909       85.93183       -0.74996
H         14.02790       83.55115        0.53457
H         13.60309       84.99336        1.54095
H         11.54831       83.09694        0.20464
H         11.81593       83.52254        1.95128
N         10.51232       85.58000       -2.14846
C          9.79605       85.86778       -3.38447
C          8.69048       86.87914       -3.12153
O          8.65885       87.91167       -3.77493
C          9.20908       84.56239       -3.98199
C         10.29209       83.49366       -4.27164
C          9.73125       82.21962       -4.83587
O          8.42983       82.10915       -5.15542
O         10.46604       81.25865       -4.98956
H         10.53607       84.60985       -1.80721
H         10.50511       86.28995       -4.13146
H          8.67738       84.80732       -4.92748
H          8.47123       84.13736       -3.26954
H         10.81250       83.20726       -3.33893
H         11.05265       83.89418       -4.97318
N          7.77739       86.65569       -2.13689
C          6.71718       87.57133       -1.77413
H          5.74031       87.05023       -1.85529
H          6.85909       87.89026       -0.71878
H          6.69830       88.47387       -2.41762
H          7.85360       85.80063       -1.58435
Ca         9.51702       78.49908       -6.71375
O          6.77289       78.59079       -7.84427
H          7.34957       78.25120       -8.57170
H          5.94880       78.89022       -8.30146
O          6.54526       81.50703       -7.39545
H          6.32796       81.75854       -8.32632
H          6.35471       82.31666       -6.86220

Ca 1.0



