%chk=holoCaM.loop2.water2.frame110.chk
%nprocshared=20
%mem=10GB
%nosave
#b3lyp/svp scf=(tight,noincore,xqc) Test 
#IOP(5/87=12) Density=Current Pop=(MK,readradii) iop(6/33=2) iop(6/42=6)

holoCaM.loop2.water2.frame110 

   -2  1 
C        -15.31128       16.66175       94.15809
C        -15.28384       17.41762       92.85580
O        -14.41664       17.18636       92.02795
H        -16.27358       16.10669       94.23509
H        -14.48163       15.92848       94.22587
H        -15.24920       17.36834       95.01235
N        -16.26768       18.31643       92.60486
C        -16.47174       19.01355       91.33763
C        -15.41347       20.06027       90.99580
O        -15.13347       20.91199       91.82765
C        -17.84230       19.70923       91.40280
C        -18.14407       20.42157       90.13161
O        -18.42796       21.73698       90.15327
O        -18.08749       19.81948       89.07374
H        -16.97710       18.43951       93.34616
H        -16.52952       18.25959       90.52137
H        -17.87423       20.43461       92.24467
H        -18.62675       18.94433       91.57630
N        -14.89646       20.12750       89.72408
C        -14.01319       21.20084       89.26138
C        -14.55353       21.99893       88.05311
O        -13.91215       22.98266       87.70995
C        -12.65370       20.59796       88.88986
H        -15.15618       19.39527       89.04851
H        -13.84987       21.92977       90.08437
H        -11.94004       21.39270       88.58283
H        -12.22168       20.06077       89.76055
H        -12.76752       19.87866       88.04919
N        -15.65070       21.62558       87.31787
C        -16.06083       22.30219       86.06816
C        -17.57367       22.56496       85.94171
O        -17.97325       23.12247       84.92831
C        -15.54577       21.49554       84.85070
C        -15.85835       20.04163       84.99118
O        -17.11540       19.63189       85.20997
O        -14.94431       19.23699       85.08499
H        -16.12958       20.75052       87.56512
H        -15.58065       23.30250       85.98984
H        -14.43818       21.59695       84.81068
H        -15.95022       21.90216       83.89933
N        -18.46625       22.25062       86.92085
C        -19.88594       22.59658       86.87156
C        -20.75377       21.79108       85.90886
O        -21.93363       22.10258       85.82523
H        -18.10990       21.84855       87.78608
H        -19.97754       23.68008       86.63838
H        -20.32188       22.44016       87.88226
N        -20.27973       20.74886       85.16680
C        -21.10278       19.98238       84.22046
C        -22.17219       19.06995       84.86339
O        -22.84651       18.36442       84.12583
C        -20.20504       19.16510       83.26022
C        -19.44304       18.01970       83.87101
N        -18.71758       17.21192       83.06758
O        -19.48298       17.80215       85.07144
H        -19.28196       20.53266       85.22968
H        -21.62220       20.71024       83.55819
H        -19.47871       19.84852       82.76720
H        -20.85420       18.73880       82.46521
H        -18.67361       17.37766       82.05195
H        -18.21553       16.40678       83.45407
N        -22.41286       19.05098       86.20541
C        -23.46127       18.26814       86.85206
C        -23.16260       16.79276       87.09761
O        -23.99431       16.16526       87.73946
H        -21.92091       19.71835       86.80130
H        -24.41913       18.39052       86.30105
H        -23.61428       18.70137       87.86436
N        -22.03933       16.15824       86.65020
C        -21.74698       14.74155       86.91786
C        -20.36570       14.57283       87.54737
O        -19.68203       15.56833       87.74885
C        -21.86084       13.93095       85.60554
C        -23.28567       13.99044       85.04456
O        -20.94663       14.41916       84.65769
H        -21.37560       16.68261       86.06897
H        -22.48078       14.31251       87.63610
H        -21.64228       12.86190       85.82671
H        -20.80405       13.69241       83.99629
H        -24.00618       13.59859       85.79539
H        -23.56764       15.03153       84.78296
H        -23.35861       13.36295       84.13210
N        -19.87288       13.33021       87.85089
C        -18.53626       13.10847       88.39766
C        -17.67283       12.52689       87.29018
O        -17.99488       11.46120       86.78018
C        -18.54800       12.15473       89.63742
C        -19.63103       12.54948       90.67285
C        -17.14415       12.12888       90.28326
C        -19.70844       11.58711       91.86605
H        -20.43985       12.49651       87.63472
H        -18.10734       14.07827       88.72460
H        -18.79812       11.12808       89.28686
H        -20.62255       12.51389       90.17277
H        -19.46258       13.58223       91.04484
H        -16.88646       13.13248       90.68685
H        -17.08160       11.38979       91.10629
H        -16.37268       11.83370       89.54577
H        -20.56601       11.86291       92.51429
H        -19.85354       10.54192       91.51636
H        -18.79361       11.63902       92.49078
N        -16.55982       13.18329       86.86112
C        -15.69205       12.68575       85.79713
C        -14.61604       11.80371       86.38777
O        -14.59269       11.63590       87.59593
C        -15.04303       13.86462       85.04311
C        -16.06578       14.78184       84.44624
O        -16.92582       15.44026       85.24502
O        -16.10619       14.95394       83.23855
H        -16.29312       14.05752       87.33205
H        -16.28536       12.08598       85.07087
H        -14.40003       13.47261       84.22607
H        -14.40734       14.45679       85.73714
N        -13.69342       11.18214       85.60097
C        -12.63933       10.35093       86.16567
C        -11.66791       11.17115       87.01998
O        -11.44528       10.75549       88.14808
C        -11.92166        9.50893       85.08785
C        -10.93332        8.54529       85.71162
C        -11.36316        7.57779       86.64250
C         -9.57110        8.60565       85.37295
C        -10.44638        6.70342       87.23025
C         -8.65821        7.72254       85.95934
C         -9.09475        6.77545       86.88957
H        -13.76106       11.27851       84.57593
H        -13.13653        9.60509       86.82372
H        -11.41647       10.15492       84.34759
H        -12.68075        8.91378       84.53483
H        -12.40543        7.49741       86.92206
H         -9.21419        9.33576       84.65767
H        -10.78571        5.97003       87.95082
H         -7.61052        7.77395       85.69447
H         -8.38673        6.09610       87.34594
N        -11.07185       12.34559       86.60894
C        -10.16866       13.13745       87.44971
C        -10.73017       13.55213       88.80425
O         -9.97823       14.05861       89.62531
C         -9.95305       14.42215       86.63887
C        -10.06060       13.92865       85.22004
C        -11.24104       12.96550       85.31058
H         -9.24069       12.53649       87.57701
H        -10.83026       15.09837       86.78634
H         -9.03230       14.98822       86.89459
H        -10.17371       14.72225       84.45062
H         -9.13932       13.34203       85.00509
H        -12.21184       13.50042       85.30136
H        -11.16908       12.27207       84.45560
N        -12.05114       13.40401       89.08534
C        -12.69298       13.81156       90.32269
C        -12.84825       12.59754       91.20970
O        -12.45838       12.65493       92.36669
C        -14.06406       14.43623       90.00104
C        -13.91405       15.64630       89.06971
C        -15.22371       16.23045       88.65071
O        -16.28658       15.82972       89.09346
O        -15.20742       17.18183       87.71304
H        -12.66931       13.01956       88.36287
H        -12.08978       14.57905       90.85903
H        -14.57122       14.74352       90.94051
H        -14.70069       13.68098       89.49089
H        -13.40665       15.32490       88.13508
H        -13.29841       16.43837       89.54742
N        -13.36223       11.43982       90.70749
C        -13.50297       10.21646       91.46306
H        -14.55878        9.87925       91.41096
H        -12.85640        9.43522       91.00846
H        -13.21606       10.34260       92.52634
H        -13.63537       11.39894       89.72177
Ca       -17.02060       17.99056       86.70064
O        -20.34237       18.51851       88.27501
H        -20.19876       19.47532       88.06658
H        -21.09206       18.52249       88.92062
O        -18.90944       16.84624       90.10421
H        -19.75599       16.94457       90.60732
H        -18.49470       16.02845       90.47382

Ca 1.0



