%chk=holoCaM-CaMKII.loop3.water2.frame117.chk
%nprocshared=20
%mem=10GB
%nosave
#b3lyp/svp scf=(tight,noincore,xqc) Test 
#IOP(5/87=12) Density=Current Pop=(MK,readradii) iop(6/33=2) iop(6/42=6)

holoCaM-CaMKII.loop3.water2.frame117 

   0  1 
C         31.95564       35.58257       77.68216
C         31.58255       34.99827       79.01060
O         31.56205       33.78307       79.12953
H         32.97630       35.24380       77.40568
H         31.23439       35.24075       76.91085
H         31.94652       36.69230       77.71164
N         31.27966       35.80869       80.06296
C         30.92853       35.31471       81.38512
C         29.51601       35.74807       81.71222
O         29.29739       36.54939       82.60897
C         32.00987       35.77371       82.38191
C         31.80233       35.30582       83.80042
O         31.75660       36.13547       84.69343
O         31.71988       33.99468       84.12063
H         31.30946       36.83142       79.92983
H         30.92061       34.21927       81.39292
H         32.07574       36.88404       82.36706
H         32.98743       35.36860       82.04042
N         28.49117       35.22655       80.98023
C         27.08503       35.56558       81.18792
C         26.51367       34.96169       82.47114
O         25.36355       35.25149       82.77197
C         26.23149       35.08143       79.99468
C         26.70602       35.67472       78.65666
C         25.85350       35.15170       77.49492
C         26.35198       35.63130       76.12056
N         27.67427       35.09121       75.78674
H         28.73925       34.56893       80.22619
H         26.99550       36.67446       81.23268
H         25.17095       35.37846       80.15561
H         26.28171       33.97110       79.94156
H         27.75630       35.38169       78.48673
H         26.65245       36.78531       78.69061
H         24.80924       35.50520       77.64046
H         25.84752       34.03976       77.49965
H         26.37482       36.74280       76.08539
H         25.62577       35.27766       75.35613
H         27.66512       34.04691       75.85088
H         27.91497       35.36295       74.80676
H         28.41303       35.47908       76.41424
N         27.23984       34.12921       83.27795
C         26.73342       33.58606       84.53828
C         27.40448       34.25141       85.73388
O         26.99097       33.98935       86.85487
C         26.83941       32.04236       84.58415
C         28.23384       31.50255       84.41996
O         28.81986       30.83070       85.42775
O         28.81517       31.61103       83.35399
H         28.21042       33.91044       83.02456
H         25.65465       33.83042       84.64844
H         26.20360       31.59659       83.78934
H         26.44069       31.69729       85.56292
N         28.39707       35.17217       85.57298
C         28.95383       35.96405       86.64860
C         29.60494       35.13210       87.71473
O         29.24193       35.29511       88.87140
H         28.75913       35.37933       84.63844
H         28.15259       36.59640       87.09134
H         29.71939       36.64961       86.22775
N         30.58979       34.23701       87.40959
C         31.30898       33.48688       88.43596
C         32.80766       33.78225       88.43206
O         33.47621       33.36852       89.36849
C         31.01115       31.97828       88.32514
C         31.75305       31.27970       87.20935
N         32.58208       30.24556       87.49226
O         31.60699       31.63938       86.05161
H         30.82367       34.09036       86.42022
H         30.93073       33.80407       89.43125
H         29.91538       31.83450       88.19960
H         31.29724       31.50186       89.28680
H         32.70839       29.91808       88.46178
H         33.09651       29.76056       86.74371
N         33.40918       34.46983       87.41371
C         34.81579       34.82956       87.39700
C         35.60590       34.10576       86.32508
O         36.77133       34.44523       86.17025
H         32.86574       34.77196       86.59787
H         35.30767       34.61587       88.37003
H         34.87942       35.92691       87.22862
N         35.09364       33.06034       85.60248
C         35.89807       32.28503       84.65689
C         35.25348       32.18531       83.28184
O         34.12306       32.61049       83.10224
C         36.11306       30.85207       85.19175
C         36.93793       30.79259       86.45353
C         38.25637       30.31128       86.38976
C         36.41090       31.18293       87.69752
C         39.03793       30.22901       87.54182
C         37.19406       31.09038       88.85394
C         38.50886       30.61523       88.77995
O         39.25282       30.52974       89.90084
H         34.12761       32.74717       85.77773
H         36.89506       32.75754       84.51360
H         36.64992       30.27647       84.40898
H         35.14494       30.33399       85.35855
H         38.68528       30.00505       85.44355
H         35.39271       31.54131       87.77954
H         40.05342       29.86106       87.46864
H         36.77756       31.38344       89.80949
H         40.16370       30.20162       89.88710
N         35.95596       31.62333       82.25149
C         35.43213       31.38568       80.90653
C         35.78567       29.95622       80.48973
O         36.95188       29.59780       80.60093
C         36.07252       32.36726       79.87927
C         35.95475       33.83945       80.34793
C         35.39716       32.17687       78.49999
C         36.66905       34.82436       79.41795
H         36.94232       31.37211       82.42410
H         34.33136       31.55667       80.87925
H         37.15701       32.13128       79.79220
H         36.44262       33.94061       81.34064
H         34.88701       34.13161       80.45159
H         34.31539       32.43027       78.55948
H         35.86846       32.80139       77.71790
H         35.49032       31.13166       78.14939
H         36.19321       34.86242       78.41796
H         36.61853       35.84518       79.84946
H         37.73771       34.53963       79.30644
N         34.87304       29.12191       79.91089
C         35.22852       27.79442       79.39754
C         35.22392       27.77056       77.87312
O         34.90695       28.77430       77.25457
C         34.28104       26.72939       79.97358
O         32.97145       26.91700       79.50803
H         33.91398       29.46671       79.76822
H         36.26129       27.52605       79.70836
H         34.31914       26.74021       81.08745
H         34.60659       25.71359       79.66769
H         32.49313       27.44032       80.19820
N         35.60106       26.64313       77.20226
C         35.63364       26.52184       75.74393
C         34.25747       26.70805       75.14199
O         34.12544       27.45567       74.18394
C         36.17109       25.14670       75.33610
H         35.89135       25.82597       77.76089
H         36.33111       27.27906       75.31869
H         37.19900       25.01108       75.73407
H         35.52219       24.33387       75.72558
H         36.21622       25.07077       74.22758
N         33.18055       26.06196       75.66953
C         31.81789       26.24119       75.18032
C         31.41432       27.70438       75.23843
O         30.99106       28.24328       74.22508
C         30.84652       25.39638       76.01460
H         33.33685       25.44216       76.47975
H         31.75131       25.88337       74.12826
H         31.12518       24.32292       75.94423
H         30.87233       25.69856       77.08367
H         29.80963       25.51252       75.63314
N         31.55215       28.41731       76.39265
C         31.19127       29.83089       76.51042
C         31.97968       30.71903       75.55533
O         31.52226       31.81640       75.26650
C         31.44495       30.33794       77.94290
C         30.55172       29.65751       78.99208
C         30.90705       30.13525       80.37032
O         31.22147       29.34346       81.24309
O         30.88239       31.44856       80.64246
H         31.93850       27.92805       77.21311
H         30.11054       29.93650       76.26651
H         31.24858       31.43099       77.98553
H         32.51654       30.17466       78.18030
H         30.65260       28.55366       78.95535
H         29.49303       29.91798       78.78086
N         33.19017       30.34032       75.06652
C         33.96832       31.16633       74.17177
H         34.92447       30.65501       73.92629
H         33.40590       31.33745       73.23012
H         34.20063       32.13829       74.65559
H         33.58798       29.44347       75.35159
Ca        31.41029       32.30687       82.65319
O         33.77428       29.29480       83.41821
H         34.29513       28.45877       83.32329
H         33.52678       29.54221       82.49347
O         31.11076       28.97375       84.56102
H         31.64075       28.47692       85.23347
H         30.21175       28.56248       84.60264

Ca 1.0



