%chk=holoCaM.loop2.water1.frame121.chk
%nprocshared=20
%mem=10GB
%nosave
#b3lyp/svp scf=(tight,noincore,xqc) Test 
#IOP(5/87=12) Density=Current Pop=(MK,readradii) iop(6/33=2) iop(6/42=6)

holoCaM.loop2.water1.frame121 

   -2  1 
C        100.41881      105.54053       -0.17802
C        100.79016      106.95763        0.12679
O        100.40502      107.45913        1.17450
H         99.82008      105.50809       -1.11139
H        101.33805      104.93179       -0.30358
H         99.81518      105.11047        0.65049
N        101.56117      107.67066       -0.74353
C        101.94535      109.04811       -0.47033
C        100.69358      109.90948       -0.49203
O        100.04540      110.00243       -1.52523
C        103.04565      109.51590       -1.45393
C        103.75199      110.78889       -1.04034
O        104.81850      111.06870       -1.55670
O        103.28033      111.56139       -0.04329
H        101.90242      107.20582       -1.59962
H        102.41859      109.05458        0.53609
H        102.67645      109.57884       -2.49966
H        103.82967      108.72682       -1.42429
N        100.26146      110.50738        0.65171
C         99.01264      111.24957        0.77010
C         98.95940      112.41958       -0.18338
O         98.00919      112.50040       -0.94972
C         98.81939      111.74161        2.20863
H        100.82660      110.37918        1.49773
H         98.16587      110.56191        0.54791
H         98.81455      110.87353        2.90198
H         99.63082      112.43909        2.50277
H         97.84704      112.26758        2.31104
N         99.95418      113.35220       -0.21370
C         99.93785      114.47636       -1.14589
C        100.65695      114.15746       -2.44809
O        100.59709      114.97502       -3.35615
C        100.44969      115.76542       -0.46727
C        101.90231      115.74993       -0.05570
O        102.61994      114.78708       -0.27451
O        102.42068      116.83057        0.55724
H        100.77746      113.20890        0.38986
H         98.88302      114.67987       -1.43697
H         99.82998      115.95305        0.43636
H        100.30439      116.61930       -1.16362
N        101.31024      112.97453       -2.63803
C        101.87944      112.57876       -3.91143
C        102.96768      113.50775       -4.37534
O        102.82596      114.07641       -5.44890
H        101.37003      112.29151       -1.87294
H        101.06551      112.53698       -4.66902
H        102.30792      111.55833       -3.82444
N        104.10128      113.68239       -3.63666
C        105.21554      114.51369       -4.08660
C        106.48138      113.69574       -4.34603
O        107.45759      114.27282       -4.80385
C        105.46624      115.66868       -3.09495
C        106.13592      115.24476       -1.80897
N        107.34240      115.76149       -1.47316
O        105.59339      114.44157       -1.06678
H        104.17607      113.19139       -2.73586
H        104.94702      114.98871       -5.05444
H        104.50313      116.17637       -2.86803
H        106.11899      116.41248       -3.59968
H        107.81519      116.44524       -2.08164
H        107.81272      115.48559       -0.60196
N        106.54130      112.35562       -4.08413
C        107.69837      111.51753       -4.35202
C        108.30295      110.92928       -3.09060
O        109.13953      110.04700       -3.21962
H        105.72610      111.87244       -3.69022
H        108.49984      112.06169       -4.89575
H        107.35476      110.68786       -5.00727
N        107.99176      111.40303       -1.84684
C        108.59091      110.89450       -0.61401
C        107.51744      110.55568        0.41278
O        106.78185      111.43086        0.83757
C        109.60378      111.92338       -0.02975
C        110.91729      111.89335       -0.81191
O        109.12201      113.24408       -0.05370
H        107.34576      112.20116       -1.76437
H        109.16189      109.96003       -0.80829
H        109.86159      111.63740        1.01499
H        108.17473      113.24217        0.22044
H        111.63632      112.60924       -0.35902
H        111.36831      110.87856       -0.76076
H        110.75606      112.16905       -1.87444
N        107.39385      109.28301        0.87841
C        106.45162      108.89457        1.92811
C        106.90923      109.51364        3.24795
O        108.07746      109.37655        3.58410
C        106.37070      107.33880        2.04265
C        105.92974      106.71349        0.68573
C        105.37974      106.93523        3.15715
C        105.99047      105.18499        0.66679
H        108.01940      108.56475        0.48544
H        105.42701      109.24016        1.66125
H        107.38162      106.95360        2.30384
H        106.60259      107.04525       -0.12955
H        104.90201      107.04935        0.42482
H        105.69131      107.35040        4.13430
H        104.35730      107.30530        2.92310
H        105.34084      105.83722        3.29226
H        107.02077      104.84250        0.90333
H        105.27657      104.73345        1.38253
H        105.72374      104.82017       -0.34759
N        106.02785      110.15168        4.07347
C        106.40554      110.74877        5.35942
C        105.93252      109.85260        6.49064
O        105.30393      108.85013        6.20147
C        105.80680      112.16847        5.47531
C        106.02887      112.94175        4.20344
O        104.94563      113.33680        3.50053
O        107.15382      113.09396        3.75823
H        105.03600      110.16591        3.81207
H        107.51292      110.81793        5.42756
H        106.23192      112.70012        6.35316
H        104.70597      112.08492        5.62260
N        106.23952      110.09435        7.79995
C        105.84010      109.15280        8.84622
C        104.31984      109.09432        9.01499
O        103.79744      107.99420        8.89493
C        106.56011      109.39513       10.19241
C        106.18427      108.31180       11.18279
C        106.55068      106.97266       10.94704
C        105.44133      108.62374       12.33434
C        106.17607      105.96797       11.84288
C        105.06472      107.61333       13.22571
C        105.43121      106.28725       12.97999
H        106.81996      110.91139        8.04075
H        106.19312      108.14776        8.52192
H        106.31773      110.38489       10.60484
H        107.66143      109.38013       10.04481
H        107.12477      106.70338       10.06950
H        105.13895      109.64399       12.53419
H        106.46011      104.94081       11.65228
H        104.48355      107.85737       14.10526
H        105.13698      105.50643       13.66934
N        103.52717      110.18738        9.28134
C        102.06972      110.13289        9.39318
C        101.41903      109.34141        8.28058
O        100.55798      108.51341        8.53855
C        101.64777      111.60556        9.27184
C        102.78730      112.30447        9.96129
C        103.99273      111.55977        9.39529
H        101.79189      109.72425       10.39059
H        101.68663      111.93708        8.20777
H        100.63380      111.82820        9.66697
H        102.82388      113.40698        9.83209
H        102.70413      112.07329       11.04857
H        104.27528      111.92466        8.38383
H        104.81795      111.71520       10.10528
N        101.82958      109.54994        7.00395
C        101.27816      108.87851        5.83732
C        101.44080      107.37515        5.96343
O        100.45014      106.66143        5.89177
C        101.97135      109.40936        4.56772
C        101.73369      110.92682        4.40034
C        102.40207      111.47963        3.18884
O        103.15800      110.69103        2.40522
O        102.25321      112.65681        2.90455
H        102.60065      110.21938        6.86989
H        100.19419      109.11694        5.75070
H        101.56106      108.88184        3.67797
H        103.06118      109.20211        4.62441
H        102.12187      111.50963        5.25803
H        100.64500      111.11086        4.32903
N        102.66272      106.82739        6.19392
C        102.86678      105.40902        6.37579
H        103.93866      105.21036        6.59406
H        102.26214      105.04819        7.23497
H        102.58044      104.86182        5.45438
H        103.47653      107.44085        6.27505
Ca       104.53752      112.93474        1.29056
O        106.84224      115.07760        1.75699
H        107.73270      114.67531        1.91179
H        107.02429      116.04821        1.71286

Ca 1.0



