%chk=holoCaM.loop4.water3.frame419.chk
%nprocshared=20
%mem=10GB
%nosave
#b3lyp/svp scf=(tight,noincore,xqc) Test 
#IOP(5/87=12) Density=Current Pop=(MK,readradii) iop(6/33=2) iop(6/42=6)

holoCaM.loop4.water3.frame419 

   -3  1 
C        -11.36665       69.62701       60.57222
C        -11.48284       69.69924       62.06187
O        -11.58932       70.79846       62.58759
H        -11.40373       70.64692       60.13015
H        -10.41395       69.13926       60.28755
H        -12.22224       69.04354       60.17033
N        -11.52632       68.55470       62.80637
C        -11.79239       68.56891       64.23899
C        -10.76342       67.75292       65.02983
O        -10.09437       66.90363       64.45863
C        -13.20666       67.98063       64.43665
C        -13.81629       68.29209       65.76711
O        -14.80944       67.68380       66.12551
O        -13.34185       69.32267       66.49796
H        -11.47077       67.64557       62.32160
H        -11.77300       69.62024       64.59781
H        -13.15363       66.87991       64.27531
H        -13.91000       68.39216       63.68048
N        -10.61524       67.95582       66.37158
C         -9.73863       67.19358       67.25733
C        -10.56203       66.51696       68.36825
O        -10.23105       65.38660       68.69838
C         -8.61023       68.12203       67.82670
C         -7.71016       68.62804       66.66230
C         -7.73956       67.38712       68.87097
C         -6.68780       69.69610       67.07094
H        -11.13545       68.72547       66.79680
H         -9.21699       66.38241       66.70084
H         -9.08874       68.99075       68.32922
H         -8.34313       69.07345       65.87450
H         -7.17326       67.77204       66.19736
H         -6.96236       68.05450       69.29491
H         -8.34980       67.04877       69.73251
H         -7.23912       66.50578       68.41475
H         -6.13091       70.03324       66.17125
H         -7.20082       70.57439       67.51540
H         -5.94051       69.30630       67.79002
N        -11.59258       67.14485       69.02628
C        -12.24810       66.58431       70.21984
C        -13.76663       66.32206       70.12129
O        -14.25931       65.64086       71.01056
C        -11.90905       67.47994       71.43889
C        -12.22114       68.92863       71.17248
O        -13.46439       69.29030       70.83233
O        -11.31953       69.74953       71.11630
H        -11.86711       68.08623       68.72648
H        -11.82061       65.58124       70.43441
H        -10.81623       67.40082       71.62761
H        -12.43969       67.12746       72.34868
N        -14.57689       66.79631       69.12714
C        -15.99424       66.42152       68.99685
C        -17.00388       67.43082       69.54550
O        -18.19192       67.14736       69.48210
H        -14.17333       67.41160       68.41818
H        -16.18617       65.47381       69.54616
H        -16.20969       66.19875       67.93027
N        -16.61446       68.57311       70.17353
C        -17.50815       69.44087       70.94893
C        -18.39224       70.39359       70.13813
O        -19.06536       71.20518       70.75978
C        -16.68669       70.21608       72.01627
C        -15.66643       71.19274       71.49884
O        -15.48882       71.35141       70.30615
O        -14.91275       71.88403       72.37337
H        -15.61152       68.73343       70.24901
H        -18.18396       68.79524       71.55307
H        -16.14860       69.47289       72.64399
H        -17.38416       70.77194       72.67835
N        -18.49029       70.35302       68.77868
C        -19.34074       71.27690       68.03325
C        -18.78978       72.69463       67.95503
O        -19.49854       73.55395       67.44827
H        -18.00958       69.61120       68.26055
H        -20.35380       71.28284       68.49487
H        -19.45731       70.91883       66.98806
N        -17.53463       73.01174       68.39051
C        -16.94951       74.34972       68.32678
C        -15.67304       74.34052       67.48982
O        -15.27883       73.28897       67.00063
C        -16.54927       74.83380       69.73912
C        -17.62074       74.70577       70.82084
C        -17.09824       75.35400       72.08076
N        -16.78698       74.61753       73.17154
O        -16.92438       76.56407       72.10249
H        -16.94826       72.26625       68.77082
H        -17.67627       75.07228       67.89314
H        -16.25121       75.90110       69.66629
H        -15.66903       74.24991       70.09058
H        -17.81869       73.62558       70.98977
H        -18.56988       75.19828       70.52073
H        -16.89635       73.59402       73.16983
H        -16.40460       75.07405       74.01346
N        -14.93269       75.47968       67.35646
C        -13.61422       75.53705       66.73613
C        -12.60350       75.96566       67.79620
O        -12.83032       76.96371       68.46872
C        -13.60520       76.52761       65.54229
C        -12.22736       76.53152       64.85419
C        -14.67586       76.16151       64.50465
H        -15.29506       76.35814       67.75785
H        -13.32387       74.54083       66.33419
H        -13.82199       77.55408       65.91289
H        -11.98025       75.51784       64.46835
H        -12.21527       77.24557       64.00464
H        -11.43366       76.84411       65.56100
H        -14.50426       75.13914       64.10430
H        -15.68906       76.20697       64.95531
H        -14.64940       76.88522       63.66165
N        -11.43286       75.28679       67.95100
C        -10.38856       75.64737       68.90717
C         -9.23467       76.31754       68.17394
O         -9.26396       76.40717       66.95795
C         -9.94489       74.35114       69.63539
C         -8.86923       74.50575       70.68083
N         -9.07382       75.26190       71.78248
O         -7.80525       73.92015       70.54116
H        -11.23814       74.51005       67.30831
H        -10.77896       76.38506       69.64140
H         -9.58574       73.63070       68.87008
H        -10.82353       73.90452       70.13443
H         -9.96710       75.75310       71.92576
H         -8.33489       75.35094       72.49558
N         -8.20251       76.87190       68.86429
C         -7.05235       77.51769       68.22901
C         -6.06513       76.51791       67.61482
O         -5.10977       76.96386       66.99557
C         -6.40336       78.52016       69.21453
C         -6.01865       77.91758       70.54499
C         -6.79003       78.20784       71.68543
C         -4.91446       77.06481       70.66618
C         -6.47413       77.63833       72.91859
C         -4.59015       76.50312       71.90637
C         -5.37485       76.78456       73.03579
O         -5.08444       76.24311       74.23539
H         -8.27698       76.88550       69.88792
H         -7.42351       78.15263       67.39242
H         -7.18091       79.29553       69.39647
H         -5.53851       79.04886       68.75824
H         -7.65315       78.85893       71.61611
H         -4.30367       76.84383       69.80376
H         -7.08969       77.85870       73.78172
H         -3.73237       75.84802       71.98761
H         -4.33395       75.64634       74.36299
N         -6.26046       75.16591       67.68395
C         -5.43940       74.17433       66.98709
C         -6.24447       73.50146       65.87326
O         -5.72710       72.59098       65.24112
C         -4.93628       73.11114       67.99003
C         -3.99994       73.67777       69.06732
C         -2.72300       74.21692       68.48126
O         -2.38727       75.50861       68.65601
O         -1.97683       73.48154       67.85414
H         -7.07261       74.79932       68.19673
H         -4.56135       74.64447       66.49324
H         -4.38707       72.30935       67.44796
H         -5.81337       72.64094       68.48640
H         -3.73605       72.86457       69.77681
H         -4.52865       74.46626       69.63816
N         -7.49479       73.93596       65.54173
C         -8.32491       73.37421       64.48733
C         -8.44926       74.41207       63.38899
O         -8.04971       74.14141       62.26542
C         -9.71497       73.00859       65.05730
C         -9.61590       72.00757       66.21944
C        -10.92931       71.72112       66.89619
O        -10.94856       70.92726       67.98224
O        -11.97086       72.21974       66.50302
H         -7.88823       74.73763       66.03713
H         -7.86111       72.45613       64.06148
H        -10.35791       72.58826       64.25427
H        -10.19658       73.93150       65.43298
H         -8.93550       72.41301       66.99479
H         -9.19596       71.06282       65.83824
N         -8.95980       75.64701       63.65675
C         -9.02995       76.69860       62.66965
H         -9.46708       77.61234       63.12857
H         -8.00787       76.94343       62.31022
H         -9.66748       76.38361       61.81888
H         -9.29438       75.86616       64.60147
Ca       -13.71630       69.84782       68.65744
O        -12.94119       72.57091       70.02235
H        -12.40397       72.18785       70.76052
H        -13.33602       73.39252       70.40831
O        -16.25818       70.19842       66.57373
H        -16.69897       70.73048       65.86648
H        -16.66209       69.29945       66.48399
O        -14.27247       71.48963       64.87123
H        -13.42645       71.54610       64.36297
H        -14.91400       72.03591       64.35337

Ca 1.0



