%chk=holoCaM-CaMKII.loop1.water2.frame76.chk
%nprocshared=20
%mem=10GB
%nosave
#b3lyp/svp scf=(tight,noincore,xqc) Test 
#IOP(5/87=12) Density=Current Pop=(MK,readradii) iop(6/33=2) iop(6/42=6)

holoCaM-CaMKII.loop1.water2.frame76 

   0  1 
C        -20.60939       61.73829       89.26535
C        -22.04661       61.72949       88.83586
O        -22.86323       61.19581       89.56550
H        -19.96624       62.25991       88.52608
H        -20.51590       62.25197       90.24482
H        -20.25101       60.69179       89.36610
N        -22.42613       62.32910       87.67183
C        -23.79228       62.35872       87.14723
C        -24.14387       61.01953       86.50034
O        -24.24467       60.94899       85.28294
C        -23.89428       63.54231       86.15021
C        -25.24536       63.76188       85.51651
O        -25.28841       64.08844       84.34172
O        -26.40089       63.71615       86.21204
H        -21.69643       62.83138       87.14261
H        -24.49086       62.58840       87.97000
H        -23.14788       63.40686       85.33441
H        -23.62520       64.47507       86.68683
N        -24.31613       59.89794       87.25577
C        -24.53949       58.57870       86.67924
C        -25.87593       58.53321       85.96165
O        -25.89112       58.26461       84.76829
C        -24.41517       57.46650       87.75250
C        -23.00853       57.47495       88.39532
C        -22.78547       56.29782       89.35395
C        -21.43611       56.38319       90.09894
N        -20.28263       56.40556       89.19572
H        -24.26781       59.97333       88.27480
H        -23.73016       58.37567       85.94150
H        -24.57022       56.48464       87.25290
H        -25.18875       57.58434       88.54279
H        -22.85875       58.41719       88.96092
H        -22.24986       57.42088       87.58629
H        -22.83983       55.34432       88.78459
H        -23.58947       56.29309       90.12158
H        -21.35358       55.49841       90.76851
H        -21.41783       57.29428       90.73776
H        -20.26587       57.29099       88.64095
H        -19.40606       56.37265       89.76527
H        -20.30243       55.57881       88.55630
N        -27.04116       58.80337       86.61974
C        -28.34894       58.77406       85.95780
C        -28.50239       59.80394       84.82943
O        -29.46495       59.68952       84.08321
C        -29.49390       58.88304       86.98686
C        -29.39012       60.10545       87.85166
O        -29.25439       59.96874       89.18479
O        -29.41486       61.21868       87.35709
H        -26.98984       59.00442       87.63003
H        -28.45171       57.77356       85.48053
H        -29.45423       57.98996       87.64833
H        -30.47720       58.87201       86.46802
N        -27.58403       60.78688       84.59718
C        -27.58840       61.60866       83.39461
C        -28.78376       62.52305       83.24800
O        -29.51719       62.36998       82.28125
H        -26.79370       60.90619       85.24243
H        -27.52716       60.93155       82.51437
H        -26.67733       62.23854       83.37685
N        -29.00232       63.54213       84.12742
C        -30.07411       64.52347       83.97739
C        -29.55260       65.95024       83.78004
O        -30.37794       66.82448       83.55576
C        -31.03380       64.44117       85.18274
C        -30.36013       64.69963       86.50320
O        -29.81501       65.76644       86.72004
O        -30.37816       63.76095       87.46575
H        -28.37081       63.63761       84.92902
H        -30.67287       64.29609       83.06818
H        -31.48430       63.42572       85.20611
H        -31.85796       65.17567       85.05378
N        -28.22411       66.27220       83.84749
C        -27.71631       67.62313       83.63131
C        -27.07501       68.22822       84.86617
O        -26.57838       69.34257       84.75439
H        -27.52688       65.54592       84.05258
H        -28.52463       68.31658       83.31348
H        -26.96972       67.58720       82.80933
N        -27.06928       67.59871       86.07820
C        -26.54820       68.21212       87.30309
C        -26.00769       67.15918       88.26749
O        -26.10273       65.97466       87.98166
C        -27.65206       69.05270       88.01177
C        -28.12777       70.27258       87.21039
O        -28.74543       68.24610       88.36924
H        -27.51205       66.67222       86.15281
H        -25.68375       68.86730       87.05167
H        -27.22927       69.47240       88.94759
H        -29.25668       68.04986       87.54244
H        -28.62670       69.97149       86.26676
H        -28.86461       70.84405       87.81417
H        -27.26973       70.93865       86.98047
N        -25.40449       67.52928       89.43339
C        -24.87395       66.58883       90.41982
C        -25.52421       66.88451       91.76743
O        -25.48996       68.03841       92.17936
C        -23.32551       66.73815       90.54886
C        -22.62837       66.77054       89.16406
C        -22.76952       65.58524       91.41450
C        -21.11861       67.01554       89.25342
H        -25.28948       68.53676       89.62807
H        -25.07998       65.53896       90.10902
H        -23.10623       67.71050       91.04462
H        -23.04397       67.61600       88.57492
H        -22.81956       65.82892       88.60716
H        -23.26215       65.55693       92.40290
H        -22.93895       64.60725       90.91142
H        -21.68604       65.70168       91.60999
H        -20.69830       67.12217       88.23190
H        -20.91246       67.95030       89.81861
H        -20.59628       66.16856       89.74135
N        -26.07195       65.90399       92.54411
C        -26.60212       66.18053       93.88281
C        -25.53909       65.93402       94.93985
O        -24.45223       65.48655       94.61466
C        -27.87623       65.34377       94.18913
C        -29.01463       65.59933       93.19830
O        -27.57949       63.97128       94.27349
H        -25.99293       64.92635       92.22944
H        -26.87729       67.25573       93.96032
H        -28.27049       65.64841       95.18131
H        -27.55941       63.59814       93.35591
H        -29.90881       65.01267       93.50032
H        -29.28046       66.67649       93.18111
H        -28.71197       65.27745       92.18541
N        -25.79576       66.21545       96.24620
C        -24.86391       65.93631       97.33750
C        -24.58545       64.44355       97.39445
O        -23.43159       64.03987       97.41373
C        -25.47411       66.42059       98.68020
C        -24.55758       66.14631       99.87638
O        -25.70421       67.80669       98.61722
H        -26.71323       66.62478       96.47682
H        -23.91270       66.49327       97.17672
H        -26.43041       65.87612       98.87367
H        -26.67032       67.94314       98.43379
H        -23.58582       66.66854       99.74864
H        -25.04121       66.51354      100.80663
H        -24.37282       65.05805       99.99588
N        -25.63086       63.57326       97.39727
C        -25.51634       62.12064       97.47409
C        -24.58977       61.57459       96.40254
O        -23.66071       60.85418       96.74073
C        -26.93525       61.52288       97.36757
C        -26.99856       60.00408       97.55865
C        -28.46583       59.55119       97.56158
C        -28.59822       58.04210       97.78558
N        -30.00684       57.64638       97.80981
H        -26.57707       63.98013       97.32855
H        -25.10148       61.84705       98.46999
H        -27.38571       61.79228       96.38575
H        -27.54966       61.98953       98.16998
H        -26.53331       59.73808       98.53278
H        -26.44410       59.49392       96.74100
H        -28.93929       59.82148       96.59193
H        -29.00601       60.07912       98.37901
H        -28.12524       57.76814       98.75489
H        -28.07488       57.49748       96.96909
H        -30.46332       57.88216       96.89862
H        -30.07197       56.61477       97.96505
H        -30.50519       58.13669       98.58837
N        -24.76071       61.90516       95.09405
C        -23.88246       61.42860       94.02905
C        -22.43410       61.79755       94.30492
O        -21.59913       60.90332       94.33353
C        -24.34936       61.95814       92.65834
C        -25.69330       61.31440       92.26769
C        -26.10859       61.69249       90.88314
O        -26.40026       62.96499       90.58005
O        -26.19546       60.83741       90.01656
H        -25.53434       62.54157       94.85593
H        -23.93103       60.31717       93.98090
H        -23.59824       61.65856       91.89984
H        -24.41205       63.06943       92.66042
H        -26.49747       61.59394       92.97561
H        -25.57532       60.21003       92.30074
N        -22.06320       63.07848       94.56291
C        -20.69851       63.43057       94.89141
H        -20.02851       63.19973       94.03696
H        -20.63025       64.51460       95.12285
H        -20.36632       62.86047       95.78664
H        -22.77196       63.81860       94.56369
Ca       -26.73097       63.36715       88.40750
O        -29.45634       62.68628       90.95773
H        -30.22845       63.01358       91.48335
H        -29.86196       62.29936       90.14255
O        -28.78992       65.47740       89.61359
H        -28.40586       66.27437       90.05827
H        -29.71298       65.41583       89.96713

Ca 1.0



