%chk=holoCaM.loop2.water2.frame118.chk
%nprocshared=20
%mem=10GB
%nosave
#b3lyp/svp scf=(tight,noincore,xqc) Test 
#IOP(5/87=12) Density=Current Pop=(MK,readradii) iop(6/33=2) iop(6/42=6)

holoCaM.loop2.water2.frame118 

   -2  1 
C         11.41192       16.17148       -9.57103
C         12.28555       17.38614       -9.72266
O         12.68557       17.97265       -8.73014
H         10.44093       16.33360      -10.08329
H         11.91765       15.29616      -10.03568
H         11.22627       15.93809       -8.50131
N         12.65119       17.79208      -10.96602
C         13.59677       18.87104      -11.23698
C         13.10319       20.25611      -10.83344
O         11.99676       20.62788      -11.19857
C         13.92211       18.89191      -12.74018
C         14.95028       19.93874      -13.03090
O         14.71482       20.83994      -13.81915
O         16.11667       19.91272      -12.36628
H         12.29084       17.24493      -11.76450
H         14.54825       18.64067      -10.70784
H         13.00209       19.08285      -13.33554
H         14.33631       17.90445      -13.03569
N         13.95553       21.11688      -10.19278
C         13.64374       22.51170       -9.89494
C         14.60830       23.52302      -10.54199
O         14.21991       24.68031      -10.62144
C         13.67160       22.71778       -8.37716
H         14.88023       20.76812       -9.92103
H         12.61814       22.75224      -10.25117
H         13.39823       23.76331       -8.11802
H         12.95181       22.03263       -7.88173
H         14.68987       22.50946       -7.97984
N         15.90289       23.21955      -10.88856
C         16.89153       24.24457      -11.28405
C         17.68789       23.93674      -12.56162
O         18.50407       24.76747      -12.93737
C         17.84976       24.51448      -10.10039
C         18.65354       23.32256       -9.67020
O         18.55370       22.15977      -10.32852
O         19.35237       23.39173       -8.67226
H         16.23053       22.25896      -10.74138
H         16.37425       25.21045      -11.47060
H         17.23027       24.83253       -9.23295
H         18.54455       25.34645      -10.34488
N         17.49678       22.80882      -13.30136
C         18.16004       22.56282      -14.57974
C         19.64328       22.20631      -14.53261
O         20.20666       22.03570      -15.60489
H         16.77395       22.14686      -13.00892
H         18.01336       23.45272      -15.23026
H         17.65564       21.70562      -15.07605
N         20.34706       22.04870      -13.37324
C         21.77586       21.69535      -13.34006
C         22.10614       20.25701      -13.80800
O         23.27220       19.89079      -13.75207
C         22.36039       21.95539      -11.92773
C         21.82224       21.07036      -10.83618
N         22.27675       21.20742       -9.57031
O         20.98061       20.22543      -11.08550
H         19.86658       22.23432      -12.48399
H         22.31964       22.40476      -14.00323
H         22.16383       23.01435      -11.65044
H         23.46308       21.81730      -11.96465
H         22.98726       21.91707       -9.33972
H         21.92036       20.59998       -8.81942
N         21.16404       19.40245      -14.30814
C         21.45060       18.06573      -14.82240
C         21.63584       16.96719      -13.77917
O         21.83274       15.83357      -14.19269
H         20.21019       19.74076      -14.44660
H         22.32700       18.11149      -15.50553
H         20.57938       17.74491      -15.43409
N         21.57965       17.19684      -12.43566
C         21.74918       16.15741      -11.41468
C         20.59099       16.14928      -10.42859
O         20.22417       17.20515       -9.93915
C         23.05258       16.39111      -10.61583
C         24.29268       16.19566      -11.48600
O         23.08052       17.68079      -10.05596
H         21.44230       18.15717      -12.11133
H         21.83679       15.14457      -11.86796
H         23.12360       15.61829       -9.81083
H         22.66451       17.62056       -9.15635
H         24.30334       15.16703      -11.90787
H         24.31415       16.93061      -12.31685
H         25.20495       16.32503      -10.86578
N         20.04072       14.97250      -10.00610
C         19.07805       14.89610       -8.90174
C         19.76671       15.36351       -7.61622
O         20.85999       14.89556       -7.32910
C         18.50461       13.45103       -8.71604
C         17.82721       12.95208      -10.02528
C         17.48460       13.44012       -7.55181
C         17.24972       11.53633       -9.93355
H         20.37913       14.09803      -10.43337
H         18.20714       15.54486       -9.13079
H         19.33821       12.75944       -8.46034
H         18.57161       12.93191      -10.84617
H         17.01108       13.64529      -10.32045
H         17.95109       13.77412       -6.60493
H         16.62545       14.10804       -7.77974
H         17.10291       12.42059       -7.34936
H         16.85201       11.23719      -10.92629
H         18.03668       10.81319       -9.63239
H         16.40462       11.48671       -9.21758
N         19.15398       16.24532       -6.77258
C         19.75725       16.75461       -5.53560
C         19.06547       16.15835       -4.32685
O         18.15128       15.36679       -4.49121
C         19.59192       18.28384       -5.46373
C         20.13512       19.00631       -6.64453
O         19.65539       18.69657       -7.85226
O         20.89027       19.95424       -6.50382
H         18.19648       16.54946       -6.99946
H         20.83497       16.48694       -5.48204
H         20.05427       18.69860       -4.54339
H         18.50302       18.51151       -5.43773
N         19.45632       16.49429       -3.06289
C         18.80117       15.95571       -1.87938
C         17.33187       16.39880       -1.82180
O         16.49014       15.51552       -1.74107
C         19.57268       16.32996       -0.58521
C         19.11872       15.65500        0.69753
C         18.22349       14.56371        0.73894
C         19.63747       16.14345        1.91047
C         17.86133       13.98910        1.95966
C         19.26297       15.57183        3.12922
C         18.37651       14.49433        3.15364
H         20.25714       17.13217       -2.93964
H         18.86435       14.84817       -1.95784
H         19.52623       17.41230       -0.41464
H         20.64936       16.08508       -0.71385
H         17.80662       14.12898       -0.15431
H         20.32657       16.97964        1.91244
H         17.18051       13.14779        1.97762
H         19.66192       15.96478        4.05512
H         18.09081       14.04841        4.09702
N         16.91522       17.71218       -1.87617
C         15.51310       18.12287       -1.80552
C         14.62820       17.40013       -2.79761
O         13.56540       16.92133       -2.42913
C         15.54326       19.61623       -2.17102
C         16.88412       20.03977       -1.63881
C         17.76525       18.87573       -2.07536
H         15.14917       17.98588       -0.76245
H         15.60612       19.74862       -3.27609
H         14.67000       20.19740       -1.80490
H         17.23435       21.03728       -1.98023
H         16.82273       20.03840       -0.52640
H         18.02301       18.94193       -3.15170
H         18.67688       18.92661       -1.46870
N         15.03219       17.29645       -4.09218
C         14.24039       16.69553       -5.15654
C         13.90626       15.25624       -4.81742
O         12.73204       14.91860       -4.76358
C         15.00226       16.77392       -6.49883
C         15.31294       18.23016       -6.91287
C         16.07449       18.32466       -8.20086
O         16.36538       17.33106       -8.84564
O         16.46368       19.53255       -8.63775
H         15.96503       17.66814       -4.31832
H         13.29252       17.26857       -5.27261
H         14.38670       16.29763       -7.29330
H         15.95549       16.21116       -6.41209
H         15.93669       18.73551       -6.15121
H         14.36932       18.80602       -7.00992
N         14.89679       14.36284       -4.54638
C         14.66231       12.98340       -4.17609
H         13.58290       12.72619       -4.16109
H         15.17722       12.31724       -4.89909
H         15.08012       12.80382       -3.16266
H         15.87221       14.67716       -4.58198
Ca        19.07325       20.33611       -9.20084
O         18.54601       18.84998      -12.91840
H         18.22485       18.41063      -13.74642
H         18.44006       19.81851      -13.09682
O         17.27750       16.68365      -11.61395
H         16.55215       17.15835      -12.09109
H         16.82347       15.92163      -11.17769

Ca 1.0



