%chk=holoCaM.loop2.water2.frame442.chk
%nprocshared=20
%mem=10GB
%nosave
#b3lyp/svp scf=(tight,noincore,xqc) Test 
#IOP(5/87=12) Density=Current Pop=(MK,readradii) iop(6/33=2) iop(6/42=6)

holoCaM.loop2.water2.frame442 

   -2  1 
C         12.56962      105.51060       67.07161
C         12.35087      106.97981       66.88584
O         12.13831      107.40987       65.76048
H         13.54578      105.32730       67.56492
H         11.75303      105.10290       67.70430
H         12.55256      104.98614       66.09200
N         12.38817      107.81720       67.96093
C         12.08084      109.23598       67.86806
C         13.33931      110.05939       68.11653
O         13.86806      110.05382       69.21922
C         10.93055      109.53300       68.84522
C         10.38700      110.91940       68.77166
O          9.31434      111.22747       69.51278
O         10.87347      111.75733       68.03602
H         12.61836      107.42594       68.88819
H         11.71023      109.46849       66.84521
H         11.25095      109.32899       69.89049
H         10.08881      108.84889       68.60003
N         13.91559      110.72550       67.07229
C         15.20623      111.40911       67.14351
C         15.18006      112.75226       67.86672
O         16.25435      113.24816       68.17639
C         15.75782      111.63261       65.72675
H         13.47861      110.60583       66.15195
H         15.91096      110.72600       67.66592
H         15.79865      110.66791       65.17610
H         15.11210      112.33538       65.16044
H         16.78149      112.05912       65.76215
N         14.02163      113.43124       68.11086
C         13.97219      114.73092       68.79728
C         13.13858      114.67865       70.06925
O         13.05947      115.69192       70.75087
C         13.47668      115.85068       67.84496
C         12.10793      115.64510       67.25566
O         11.69330      116.42129       66.41035
O         11.37568      114.56865       67.57822
H         13.14491      113.01391       67.77640
H         14.99410      115.03313       69.11388
H         14.19355      115.90966       66.99728
H         13.49484      116.83064       68.37057
N         12.50524      113.54023       70.47163
C         11.72705      113.45223       71.69083
C         10.53206      114.37397       71.67127
O         10.39300      115.17726       72.58251
H         12.58336      112.67810       69.91692
H         12.37852      113.67136       72.56569
H         11.35219      112.41117       71.79868
N          9.61127      114.28863       70.66893
C          8.37596      115.06853       70.63199
C          7.14576      114.15035       70.66198
O          6.03664      114.63378       70.48296
C          8.38725      116.01518       69.41205
C          8.03116      115.35527       68.10460
N          7.00458      115.83218       67.36165
O          8.66179      114.39017       67.71206
H          9.78706      113.62436       69.90362
H          8.32490      115.73625       71.51965
H          9.38695      116.49888       69.34015
H          7.64951      116.82562       69.59597
H          6.45881      116.64952       67.67075
H          6.75622      115.39434       66.46536
N          7.27231      112.81651       70.93723
C          6.16706      111.88214       71.06642
C          5.66798      111.24925       69.77284
O          4.83098      110.36828       69.88687
H          8.19202      112.45734       71.22254
H          5.33641      112.34271       71.64370
H          6.53811      111.02656       71.67356
N          6.10500      111.61212       68.52712
C          5.62699      110.95258       67.29763
C          6.77690      110.52097       66.39374
O          7.91930      110.85611       66.65945
C          4.68529      111.90132       66.50866
C          3.31423      112.05076       67.17784
O          5.28493      113.15426       66.29556
H          6.76709      112.39484       68.43792
H          5.06265      110.02677       67.53957
H          4.46228      111.46388       65.51218
H          5.20899      113.67504       67.13797
H          2.67198      112.71351       66.55899
H          2.82278      111.05606       67.24373
H          3.40562      112.47974       68.19628
N          6.50411      109.79336       65.25867
C          7.49807      109.50777       64.22849
C          7.07940      110.23246       62.95240
O          6.03872      109.94354       62.38380
C          7.75903      107.97945       63.99875
C          6.52699      107.18088       63.48558
C          8.34196      107.35590       65.28053
C          6.84629      105.72814       63.11555
H          5.53539      109.49549       65.08015
H          8.48005      109.92502       64.53965
H          8.54774      107.91096       63.21444
H          6.15307      107.63005       62.54786
H          5.70996      107.19836       64.23728
H          9.24182      107.91888       65.60764
H          7.59287      107.36614       66.09972
H          8.67215      106.31171       65.10677
H          7.14973      105.13350       63.99930
H          5.94036      105.24922       62.68633
H          7.65214      105.69390       62.35057
N          7.85562      111.24035       62.47379
C          7.58875      111.97969       61.24354
C          7.81335      111.04175       60.04987
O          8.20378      109.90783       60.27247
C          8.55966      113.19598       61.22174
C          8.26054      114.32258       60.26809
O          7.22596      114.36673       59.62558
O          9.11880      115.35762       60.19939
H          8.67550      111.49662       63.02130
H          6.54336      112.35624       61.28428
H          9.59341      112.81914       61.06935
H          8.54117      113.68302       62.21814
N          7.60083      111.42094       58.75977
C          7.88454      110.55394       57.61858
C          9.37146      110.18714       57.54370
O          9.64208      108.99724       57.45953
C          7.36666      111.19682       56.31065
C          7.60938      110.34290       55.08839
C          7.04736      109.05800       54.98109
C          8.39242      110.83821       54.03075
C          7.26713      108.28599       53.83583
C          8.60768      110.06362       52.88785
C          8.04530      108.78883       52.78982
H          7.21581      112.34881       58.56757
H          7.30211      109.61301       57.74277
H          7.81842      112.19068       56.15890
H          6.27212      111.36378       56.40738
H          6.43599      108.65427       55.77776
H          8.83449      111.82531       54.08772
H          6.83078      107.29866       53.75735
H          9.20876      110.45400       52.07689
H          8.21109      108.19195       51.90245
N         10.39612      111.10407       57.58870
C         11.81391      110.74662       57.56670
C         12.16465      109.68434       58.58939
O         12.83770      108.71588       58.26809
C         12.52650      112.05612       57.95685
C         11.60071      113.09974       57.39210
C         10.23678      112.53484       57.76403
H         12.09686      110.43525       56.53681
H         12.49844      112.20630       59.06122
H         13.58752      112.12146       57.63483
H         11.78006      114.13611       57.75144
H         11.70033      113.07424       56.28419
H          9.99879      112.72652       58.82658
H          9.49098      113.00910       57.10975
N         11.72113      109.83893       59.86412
C         12.03654      108.95516       60.97707
C         11.53368      107.55011       60.69183
O         12.30100      106.60685       60.82555
C         11.49678      109.57036       62.30123
C         12.15277      110.96309       62.51018
C         11.83358      111.66886       63.78788
O         10.58392      112.02644       64.10993
O         12.74495      112.05000       64.49604
H         11.11174      110.64850       60.04330
H         13.14207      108.90119       61.10107
H         11.77324      108.90409       63.14766
H         10.38894      109.66368       62.27335
H         11.85227      111.66877       61.71445
H         13.25703      110.84336       62.45461
N         10.28493      107.34576       60.19532
C          9.80212      106.04275       59.79541
H          8.78628      106.13831       59.35341
H         10.47432      105.61168       59.02167
H          9.75362      105.36559       60.67172
H          9.67350      108.14936       60.03733
Ca        10.48572      113.38430       65.88849
O         11.65345      115.18163       63.76973
H         11.46817      114.69309       62.92921
H         12.52353      114.82493       64.08088
O          7.86772      113.75713       64.72932
H          7.56321      114.61036       64.33032
H          7.15507      113.10837       64.50715

Ca 1.0



