%chk=holoCaM.loop1.water2.frame200.chk
%nprocshared=20
%mem=10GB
%nosave
#b3lyp/svp scf=(tight,noincore,xqc) Test 
#IOP(5/87=12) Density=Current Pop=(MK,readradii) iop(6/33=2) iop(6/42=6)

holoCaM.loop1.water2.frame200 

   0  1 
C         50.50446       52.63079       99.93930
C         51.30437       51.83612      100.92835
O         52.08889       52.42444      101.65485
H         49.86554       53.36860      100.46435
H         51.20634       53.16952       99.26535
H         49.86588       51.97377       99.31213
N         51.18436       50.48084      100.99006
C         52.05672       49.64152      101.80585
C         53.49210       49.82842      101.32823
O         53.75668       49.66366      100.14626
C         51.61857       48.16444      101.69383
C         52.62350       47.22510      102.30211
O         52.95857       47.28810      103.60321
O         53.18078       46.40799      101.58817
H         50.48315       50.02537      100.38528
H         51.97278       49.93235      102.87730
H         51.51523       47.89841      100.61954
H         50.62622       48.03269      102.18055
N         54.46544       50.17079      102.21755
C         55.85004       50.45768      101.85799
C         56.80310       49.40392      102.40628
O         58.00736       49.56526      102.23945
C         56.25949       51.83092      102.44976
C         55.30464       53.00012      102.15194
C         54.99196       53.23146      100.66774
C         56.23683       53.51176       99.81912
N         55.86071       53.75424       98.42745
H         54.21816       50.22526      103.20930
H         55.96795       50.48196      100.75401
H         57.27977       52.08644      102.09110
H         56.31393       51.74856      103.55934
H         55.74264       53.92543      102.58657
H         54.34749       52.81741      102.68259
H         54.30180       54.10089      100.59870
H         54.46252       52.34723      100.25793
H         56.92323       52.63876       99.85624
H         56.77177       54.40071      100.22003
H         56.72452       53.91610       97.86193
H         55.35487       52.92292       98.04270
H         55.24736       54.59908       98.36394
N         56.35205       48.31625      103.08931
C         57.21584       47.36523      103.77507
C         57.05862       45.97548      103.18653
O         58.04531       45.36464      102.80736
C         56.83588       47.34574      105.26944
C         56.89935       48.72035      105.87662
O         58.05818       49.40517      105.89225
O         55.89314       49.22689      106.34700
H         55.33851       48.17322      103.18824
H         58.28598       47.66434      103.69845
H         57.51900       46.66799      105.82456
H         55.79884       46.96200      105.38480
N         55.81979       45.42253      103.08893
C         55.53242       44.08358      102.61115
C         54.68071       43.32328      103.61091
O         54.19677       42.25481      103.26294
H         55.01231       45.98765      103.36812
H         56.45082       43.51013      102.36496
H         54.93070       44.18990      101.68304
N         54.41447       43.82287      104.85636
C         53.48035       43.19924      105.78860
C         52.03595       43.23409      105.28247
O         51.19233       42.60672      105.90808
C         53.57577       43.87366      107.17946
C         53.34356       45.36300      107.13454
O         54.31266       46.20596      107.54029
O         52.28970       45.81562      106.72350
H         54.89193       44.68023      105.16359
H         53.77644       42.13421      105.91427
H         54.59552       43.69672      107.58543
H         52.84903       43.40706      107.87889
N         51.66804       43.94424      104.17507
C         50.31471       43.96225      103.64803
C         49.32615       44.55845      104.62064
O         48.34971       43.90383      104.94101
H         52.36638       44.49618      103.65968
H         50.01255       42.93016      103.36627
H         50.29764       44.58489      102.72631
N         49.49934       45.82984      105.07179
C         48.57318       46.56184      105.93931
C         48.97983       48.05898      105.93328
O         50.12694       48.28540      106.70078
C         48.50032       46.01759      107.40597
C         47.42775       44.95424      107.65186
O         49.74789       45.51895      107.81765
H         50.32037       46.33220      104.70616
H         47.56528       46.53909      105.47167
H         48.16653       46.84834      108.07427
H         50.17533       46.20427      108.39035
H         47.60858       44.01133      107.11531
H         47.40337       44.70472      108.73467
H         46.43052       45.35832      107.37294
N         47.90452       48.93038      106.40492
C         48.15503       50.35089      106.09587
C         47.85281       51.11966      107.36025
O         46.74810       51.03200      107.87865
C         47.35688       50.84492      104.84264
C         47.87399       50.10036      103.57698
C         47.49864       52.37111      104.66869
C         47.20311       50.51667      102.26621
H         46.96462       48.63371      106.05238
H         49.23112       50.52203      105.86265
H         46.27492       50.63199      104.99037
H         47.70577       49.01025      103.70087
H         48.96854       50.27038      103.46441
H         48.55033       52.64602      104.46296
H         46.86590       52.73810      103.83602
H         47.14867       52.90997      105.57282
H         46.10632       50.35948      102.32240
H         47.41885       51.57700      102.02101
H         47.61357       49.90385      101.43546
N         48.82582       51.89128      107.91718
C         48.68003       52.61462      109.16821
C         48.25407       54.04250      108.88982
O         48.11094       54.41517      107.73420
C         50.02404       52.57338      109.95824
C         50.48768       51.13756      110.25976
O         51.02968       53.29810      109.28603
H         49.71352       51.99525      107.41307
H         47.88794       52.14088      109.78938
H         49.88265       53.06404      110.94314
H         51.50807       52.69542      108.65981
H         49.72452       50.60223      110.86053
H         50.66688       50.57356      109.31938
H         51.43988       51.16538      110.83243
N         48.04557       54.90873      109.91771
C         47.74389       56.32695      109.72702
C         48.85003       56.99265      108.93174
O         48.55829       57.75316      108.02097
C         47.57358       57.05002      111.08458
C         46.31619       56.56600      111.81663
O         48.71118       56.85253      111.88646
H         48.15503       54.54974      110.87799
H         46.79078       56.44581      109.16311
H         47.44671       58.13824      110.87542
H         48.65028       57.49484      112.64048
H         46.19447       57.12903      112.76557
H         45.41932       56.75105      111.18717
H         46.37348       55.48355      112.05155
N         50.15099       56.71153      109.21000
C         51.27932       57.26904      108.47576
C         51.17552       56.93584      106.99289
O         51.18935       57.84454      106.17402
C         52.58410       56.73944      109.12081
C         53.86588       57.37550      108.56161
C         55.12680       57.01010      109.37709
C         55.08893       57.56553      110.81846
N         56.34999       57.32989      111.51965
H         50.34518       56.04890      109.97692
H         51.27199       58.37468      108.60157
H         52.65188       55.63135      109.03996
H         52.50144       56.99928      110.19325
H         53.76577       58.48188      108.56248
H         54.00156       57.03889      107.51058
H         55.99944       57.46269      108.85811
H         55.27040       55.90729      109.39698
H         54.27528       57.08799      111.40260
H         54.89885       58.66130      110.78329
H         56.54150       56.30423      111.58598
H         57.13422       57.80967      111.02164
H         56.27747       57.72335      112.48663
N         51.06288       55.64396      106.58263
C         51.02237       55.23498      105.17685
C         49.72115       55.61073      104.46761
O         49.65417       55.43624      103.25810
C         51.21538       53.70602      105.08285
C         52.56969       53.27025      105.66842
C         52.68721       51.78073      105.75249
O         53.61616       51.21278      105.21305
O         51.81292       51.06721      106.48399
H         51.05124       54.92085      107.31421
H         51.86841       55.72535      104.64537
H         51.15478       53.36519      104.02584
H         50.39247       53.22806      105.64948
H         52.69857       53.64536      106.70071
H         53.38870       53.69338      105.04656
N         48.63491       56.08621      105.13731
C         47.38768       56.40144      104.47237
H         46.63110       56.72512      105.21985
H         47.54048       57.22313      103.74185
H         46.99625       55.50368      103.94721
H         48.67121       56.20364      106.15279
Ca        51.78040       48.33034      105.17830
O         52.01981       48.01341      109.11086
H         51.49769       48.28084      109.90781
H         52.36304       47.11287      109.33532
O         54.00712       50.29202      108.77555
H         54.98915       50.17466      108.73506
H         53.77589       50.10349      109.71958

Ca 1.0



