%chk=holoCaM-CaMKII.loop3.water2.frame230.chk
%nprocshared=20
%mem=10GB
%nosave
#b3lyp/svp scf=(tight,noincore,xqc) Test 
#IOP(5/87=12) Density=Current Pop=(MK,readradii) iop(6/33=2) iop(6/42=6)

holoCaM-CaMKII.loop3.water2.frame230 

   0  1 
C         72.75809       31.89883       45.36171
C         74.04023       31.62863       44.63470
O         74.04339       30.84407       43.69659
H         71.92990       31.28703       44.94507
H         72.87664       31.65830       46.43898
H         72.49850       32.97294       45.25393
N         75.18537       32.24476       45.03717
C         76.46784       32.07752       44.37249
C         77.39868       31.28397       45.28076
O         77.59381       31.66476       46.42645
C         77.03956       33.47039       44.00418
C         78.30637       33.38556       43.19172
O         78.88428       34.39550       42.82845
O         78.79933       32.18040       42.87789
H         75.14853       32.85814       45.86648
H         76.33458       31.51561       43.42071
H         77.23336       34.04657       44.93277
H         76.28931       34.02353       43.40132
N         78.00806       30.15574       44.81024
C         78.87163       29.28203       45.60290
C         80.00270       30.04764       46.26884
O         80.09106       29.98273       47.48750
C         79.40095       28.13352       44.71078
C         80.30538       27.13467       45.45136
C         80.67958       25.96305       44.52627
C         81.58763       24.91660       45.19474
N         82.92195       25.44291       45.48953
H         77.83945       29.89819       43.82607
H         78.25442       28.81914       46.40632
H         79.96547       28.55602       43.85249
H         78.51981       27.58292       44.31233
H         79.76987       26.73358       46.33927
H         81.21887       27.66568       45.78934
H         81.17915       26.33990       43.60777
H         79.73937       25.45102       44.22337
H         81.69690       24.05991       44.49276
H         81.11245       24.53497       46.12546
H         82.87565       26.20811       46.19804
H         83.51164       24.67191       45.87833
H         83.37007       25.79451       44.61196
N         80.88805       30.80249       45.55488
C         81.97912       31.54314       46.19093
C         81.75512       33.05305       46.16189
O         82.61929       33.77245       46.64396
C         83.35175       31.10354       45.62497
C         83.63386       31.46641       44.19541
O         82.75529       32.17006       43.47138
O         84.69487       31.13907       43.68947
H         80.76724       30.87188       44.53441
H         82.02927       31.28904       47.27185
H         83.43260       29.99964       45.72966
H         84.15348       31.56456       46.24155
N         80.58938       33.60680       45.70669
C         80.29755       35.02970       45.82626
C         81.14515       35.92860       44.95002
O         81.07736       37.13486       45.14176
H         79.83800       32.99916       45.35882
H         80.44128       35.31698       46.89081
H         79.23405       35.22462       45.57462
N         81.96072       35.43931       43.97195
C         82.86453       36.28680       43.19597
C         82.15975       37.31864       42.30991
O         82.85251       38.14450       41.73372
C         83.84246       35.41997       42.36388
C         83.21270       34.74028       41.16661
N         83.71851       34.93596       39.92576
O         82.25456       33.99877       41.31378
H         81.98592       34.42574       43.82076
H         83.48680       36.83374       43.93905
H         84.28668       34.64740       43.02963
H         84.67679       36.06399       42.01293
H         84.53711       35.54382       39.77618
H         83.30204       34.46495       39.10941
N         80.80407       37.32255       42.13476
C         80.08962       38.28236       41.30304
C         79.38837       37.61614       40.13123
O         78.65802       38.30422       39.42960
H         80.22742       36.60877       42.59590
H         80.76711       39.06480       40.89598
H         79.33685       38.79052       41.94220
N         79.61527       36.30941       39.81048
C         79.08076       35.64090       38.62765
C         78.58981       34.24124       38.97734
O         79.27596       33.54470       39.71602
C         80.21592       35.51594       37.59696
C         80.68053       36.85923       37.07722
C         79.81473       37.66931       36.31922
C         81.98991       37.30493       37.32299
C         80.25562       38.89505       35.80964
C         82.42735       38.53256       36.81544
C         81.56251       39.32944       36.05169
O         81.97658       40.50757       35.54245
H         80.30367       35.77816       40.36347
H         78.25705       36.22009       38.15304
H         79.87203       34.91859       36.72490
H         81.06056       34.97132       38.07120
H         78.80226       37.34792       36.10978
H         82.67488       36.70336       37.90501
H         79.58281       39.50462       35.21881
H         83.44054       38.86014       37.01111
H         82.87754       40.83683       35.67227
N         77.45750       33.72712       38.41191
C         76.96927       32.36963       38.66841
C         77.03730       31.53613       37.39159
O         76.53335       31.96294       36.36032
C         75.52361       32.39318       39.24096
C         75.47504       33.26887       40.51828
C         75.05916       30.94910       39.54636
C         74.08293       33.38685       41.14122
H         76.92468       34.31416       37.74965
H         77.60037       31.87276       39.43962
H         74.84078       32.83479       38.48118
H         75.80290       34.29980       40.26488
H         76.17493       32.85780       41.27427
H         74.01231       30.92252       39.90472
H         75.08111       30.32053       38.63333
H         75.71598       30.48153       40.31248
H         74.12665       34.07211       42.01331
H         73.36218       33.79422       40.40169
H         73.71965       32.40818       41.51093
N         77.60611       30.29637       37.42363
C         77.72386       29.38627       36.28953
C         76.89477       28.12404       36.52512
O         76.19946       28.04262       37.52888
C         79.21241       29.05218       36.07609
O         79.73663       28.37612       37.19070
H         77.95445       29.95191       38.32501
H         77.34763       29.86580       35.35939
H         79.77021       29.99824       35.87542
H         79.35750       28.41430       35.18057
H         80.43584       28.95716       37.58825
N         76.89865       27.10686       35.61588
C         76.09065       25.89239       35.73563
C         76.43652       25.06500       36.96210
O         75.53372       24.75369       37.72472
C         76.25107       25.01901       34.48808
H         77.48019       27.21753       34.77078
H         75.01655       26.18289       35.78754
H         75.59833       24.12249       34.56718
H         75.94634       25.59147       33.58671
H         77.30389       24.68779       34.36523
N         77.71379       24.64496       37.20705
C         78.06290       23.80901       38.35920
C         77.83257       24.49098       39.70378
O         78.02176       23.83134       40.71786
C         79.53104       23.37279       38.27589
H         78.45179       24.90334       36.53495
H         77.43468       22.89101       38.32042
H         79.78169       22.68830       39.11608
H         79.71401       22.82854       37.32598
H         80.20178       24.25740       38.32480
N         77.41854       25.78721       39.80282
C         77.18687       26.46331       41.07024
C         75.70158       26.73081       41.29238
O         75.32722       26.99698       42.42574
C         77.95684       27.79185       41.07885
C         79.46257       27.62977       40.78136
C         80.08993       28.98639       40.70632
O         81.05058       29.37031       41.55575
O         79.65649       29.80869       39.91957
H         77.27266       26.33937       38.95275
H         77.53296       25.82273       41.91130
H         77.81471       28.30101       42.05493
H         77.50932       28.43913       40.29000
H         79.61419       27.12973       39.80161
H         79.94222       27.02221       41.57581
N         74.80015       26.69193       40.26608
C         73.37598       26.89260       40.42538
H         73.06329       27.78815       39.84803
H         72.84246       26.00651       40.01927
H         73.08085       27.02452       41.48588
H         75.11709       26.53015       39.30675
Ca        80.69278       31.54331       41.89361
O         81.47080       32.27010       38.25150
H         81.88662       31.38648       38.09334
H         80.84981       32.39130       37.48983
O         83.53352       30.80295       40.20904
H         84.31517       31.14213       39.70529
H         83.56895       31.28557       41.07166

Ca 1.0



