%chk=holoCaM.loop4.water3.frame86.chk
%nprocshared=20
%mem=10GB
%nosave
#b3lyp/svp scf=(tight,noincore,xqc) Test 
#IOP(5/87=12) Density=Current Pop=(MK,readradii) iop(6/33=2) iop(6/42=6)

holoCaM.loop4.water3.frame86 

   -3  1 
C          1.66406        3.78335      120.73680
C          1.23646        2.92108      119.58729
O          1.99346        2.78946      118.63699
H          2.66919        4.22007      120.54819
H          0.93374        4.59959      120.90073
H          1.72979        3.15659      121.65307
N          0.05452        2.24119      119.64485
C         -0.31849        1.22262      118.67167
C         -1.76929        1.36129      118.19932
O         -2.65036        1.44821      119.04340
C         -0.13160       -0.13894      119.36859
C         -0.15990       -1.29423      118.42020
O         -0.16981       -1.10918      117.21470
O         -0.08868       -2.54716      118.90453
H         -0.52729        2.34362      120.49096
H          0.37026        1.25365      117.80167
H         -0.90998       -0.26540      120.15180
H          0.86341       -0.17674      119.86351
N         -2.09448        1.29276      116.86879
C         -3.47686        1.31023      116.36135
C         -3.90750       -0.01567      115.70989
O         -5.09196       -0.15892      115.43916
C         -3.68684        2.45912      115.31686
C         -2.86169        2.21415      114.01608
C         -3.37773        3.82734      115.94197
C         -3.13538        3.20299      112.88447
H         -1.32746        1.18646      116.19767
H         -4.17232        1.47430      117.21326
H         -4.76339        2.45960      115.03305
H         -3.11116        1.21514      113.60536
H         -1.78118        2.23492      114.23443
H         -2.31135        3.89868      116.23297
H         -3.60934        4.64838      115.23333
H         -4.00293        3.98298      116.84509
H         -2.82276        4.22957      113.15837
H         -2.54750        2.89930      111.99049
H         -4.21232        3.19256      112.61452
N         -3.00163       -0.95790      115.31229
C         -3.34251       -2.11172      114.46422
C         -2.69239       -3.44087      114.89492
O         -2.96681       -4.44821      114.25678
C         -2.94363       -1.82224      112.99394
C         -1.46219       -1.63291      112.80152
O         -0.65821       -1.44318      113.86424
O         -0.98439       -1.66956      111.67915
H         -2.01958       -0.75661      115.49772
H         -4.44371       -2.26577      114.46852
H         -3.48422       -0.94064      112.58854
H         -3.25742       -2.69953      112.38589
N         -1.82901       -3.53224      115.94345
C         -1.23331       -4.77747      116.41173
C         -0.20748       -5.46743      115.50933
O          0.21426       -6.54297      115.91214
H         -1.65411       -2.70034      116.50433
H         -2.05997       -5.49192      116.61789
H         -0.72315       -4.58363      117.37855
N          0.23609       -4.98657      114.30293
C          1.08714       -5.80810      113.42356
C          2.47935       -6.16623      113.96833
O          3.09277       -7.06238      113.40616
C          1.16862       -5.26548      111.96890
C          2.03002       -4.05419      111.69277
O          2.69214       -3.41341      112.66314
O          2.14804       -3.65911      110.54497
H         -0.13492       -4.09439      113.95412
H          0.53884       -6.77294      113.32998
H          0.13713       -5.06294      111.60932
H          1.59221       -6.07847      111.34087
N          3.04583       -5.52673      115.03143
C          4.33614       -5.89560      115.61739
C          5.39138       -4.80810      115.49796
O          6.45071       -4.95946      116.09147
H          2.54117       -4.74415      115.45636
H          4.75341       -6.81967      115.16279
H          4.16377       -6.10361      116.69524
N          5.19296       -3.70694      114.72427
C          6.13757       -2.61044      114.56011
C          5.46052       -1.29460      114.91445
O          4.26553       -1.27463      115.18204
C          6.60924       -2.54900      113.08579
C          7.41882       -3.78629      112.66930
C          7.85353       -3.69466      111.22666
N          6.94079       -3.68069      110.22625
O          9.04457       -3.64430      110.95742
H          4.32246       -3.63642      114.20134
H          7.02116       -2.74254      115.22357
H          7.26192       -1.66221      112.93265
H          5.71874       -2.43530      112.42843
H          6.82135       -4.71272      112.80073
H          8.31826       -3.85129      113.32113
H          5.93243       -3.73869      110.42921
H          7.24347       -3.62338      109.24218
N          6.17915       -0.14020      114.90571
C          5.61314        1.18695      115.11895
C          5.86730        1.98746      113.85281
O          7.01852        2.07423      113.44349
C          6.24709        1.83894      116.37817
C          5.74843        3.27995      116.58173
C          5.91388        1.02138      117.63872
H          7.19175       -0.19732      114.71083
H          4.52151        1.12914      115.29042
H          7.35231        1.86349      116.25742
H          6.21431        3.72071      117.48919
H          6.02508        3.91897      115.71787
H          4.64395        3.30157      116.70440
H          6.40469        1.46397      118.53107
H          4.82079        1.02164      117.81902
H          6.25932       -0.02912      117.54329
N          4.84494        2.58863      113.17047
C          5.04245        3.26421      111.88717
C          4.92580        4.77346      112.01320
O          4.66490        5.27423      113.09799
C          4.12844        2.67658      110.77455
C          2.67032        3.09329      110.79395
N          1.81810        2.68939      111.75919
O          2.24277        3.78319      109.87989
H          3.90523        2.56900      113.58420
H          6.08221        3.07743      111.54264
H          4.20696        1.56815      110.76203
H          4.53856        3.02598      109.80308
H          2.12560        2.07585      112.51907
H          0.82588        2.96796      111.72329
N          5.15939        5.56241      110.92438
C          5.17907        7.02145      110.95504
C          3.90624        7.62327      111.50968
O          3.98728        8.59090      112.25285
C          5.50018        7.64948      109.57430
C          4.39530        7.58438      108.52811
C          3.75151        8.77554      108.13934
C          4.00614        6.37880      107.91195
C          2.74562        8.76252      107.16995
C          3.00115        6.36997      106.93792
C          2.36779        7.55844      106.56399
O          1.40241        7.53195      105.62294
H          5.39484        5.09467      110.04213
H          6.01510        7.31934      111.62768
H          6.43765        7.22023      109.16082
H          5.71314        8.72173      109.78224
H          4.02470        9.72200      108.58886
H          4.47559        5.44137      108.15590
H          2.26324        9.69046      106.88931
H          2.71616        5.43610      106.46966
H          0.94358        8.33385      105.33382
N          2.69233        7.11672      111.16918
C          1.43888        7.65342      111.68371
C          1.38606        7.48219      113.19471
O          1.16423        8.45783      113.89822
C          0.22261        6.98508      111.00151
C          0.24917        7.20533      109.47472
C         -1.00115        6.71034      108.81200
O         -0.94344        5.83191      107.96616
O         -2.19015        7.26326      109.11816
H          2.66979        6.30978      110.53128
H          1.37432        8.73747      111.43579
H         -0.69767        7.45609      111.41355
H          0.18844        5.89517      111.22195
H          1.11744        6.67548      109.03542
H          0.35154        8.28799      109.24734
N          1.63020        6.26454      113.76042
C          1.61657        6.02136      115.20695
C          2.68288        6.81109      115.96532
O          2.63230        6.81858      117.18832
C          1.87330        4.52873      115.50028
C          0.79698        3.59094      114.93096
C          1.18787        2.14193      115.06105
O          2.22584        1.82030      115.60963
O          0.41890        1.18541      114.51379
H          1.83651        5.48198      113.12219
H          0.61747        6.31441      115.59935
H          1.92940        4.35642      116.59606
H          2.86139        4.27105      115.05691
H          0.64512        3.79415      113.85836
H         -0.16498        3.77052      115.44830
N          3.70092        7.45548      115.33279
C          4.72671        8.17917      116.05104
H          5.46228        8.60245      115.33344
H          4.27182        9.01182      116.62752
H          5.26237        7.49372      116.74189
H          3.77866        7.41292      114.31427
Ca         1.43951       -2.11269      113.92000
O          2.21502       -3.14176      117.24211
H          1.39910       -3.16479      116.68122
H          2.15435       -3.95081      117.80807
O          2.79041       -0.48659      117.48010
H          2.54003        0.45335      117.64135
H          3.00464       -0.83437      118.38083
O          2.27181       -0.35626      111.86816
H          1.29672       -0.18306      111.88881
H          2.43798       -0.73527      110.97033

Ca 1.0



