%chk=holoCaM-CaMKII.loop1.water2.frame261.chk
%nprocshared=20
%mem=10GB
%nosave
#b3lyp/svp scf=(tight,noincore,xqc) Test 
#IOP(5/87=12) Density=Current Pop=(MK,readradii) iop(6/33=2) iop(6/42=6)

holoCaM-CaMKII.loop1.water2.frame261 

   0  1 
C         86.21456       91.31004       45.03288
C         86.32807       91.15174       43.54917
O         85.50547       91.70687       42.83666
H         85.22606       90.93003       45.36421
H         87.00984       90.74272       45.55996
H         86.30602       92.38382       45.29909
N         87.34180       90.42103       43.00758
C         87.50458       90.24596       41.57354
C         86.37829       89.38540       41.00870
O         86.43085       88.16684       41.10749
C         88.87086       89.59634       41.28827
C         89.16854       89.40866       39.83727
O         88.42047       89.82580       38.96764
O         90.29157       88.76148       39.50057
H         88.04471       90.01096       43.64177
H         87.50406       91.25560       41.09893
H         88.90331       88.60112       41.78084
H         89.68448       90.21874       41.71667
N         85.31252       89.97499       40.41260
C         84.21397       89.24480       39.79820
C         84.66915       88.54667       38.52319
O         84.43185       87.35404       38.39064
C         83.04682       90.21238       39.47359
C         82.40843       90.87483       40.71933
C         81.69294       89.86184       41.63665
C         80.93823       90.51682       42.80753
N         81.83827       91.14201       43.77866
H         85.26770       90.99887       40.42930
H         83.82344       88.48000       40.50102
H         82.24678       89.66213       38.93064
H         83.41853       91.01510       38.79933
H         81.64803       91.60088       40.35735
H         83.17437       91.44346       41.28355
H         82.40649       89.12228       42.05354
H         80.94328       89.31724       41.02228
H         80.35916       89.72162       43.32846
H         80.21225       91.26649       42.42215
H         82.50854       90.43274       44.15553
H         82.36188       91.93577       43.34785
H         81.26914       91.51592       44.57257
N         85.28856       89.24101       37.52103
C         85.57103       88.65721       36.20515
C         86.57714       87.51255       36.23663
O         86.74518       86.86306       35.21240
C         86.15834       89.68947       35.20065
C         85.39935       90.98058       35.04859
O         84.87940       91.26081       33.98127
O         85.38361       91.88756       36.04353
H         85.49489       90.23179       37.69212
H         84.60060       88.28409       35.80681
H         86.19964       89.19149       34.20411
H         87.20154       89.94926       35.48620
N         87.36196       87.27233       37.32180
C         88.47304       86.33862       37.29272
C         89.50936       86.77522       36.27203
O         89.87602       85.99268       35.40804
H         87.22589       87.81285       38.18486
H         88.11131       85.30765       37.09116
H         88.96265       86.34322       38.29188
N         90.03026       88.03161       36.34473
C         91.09480       88.56212       35.49614
C         92.34598       88.86153       36.32473
O         93.26702       89.48172       35.81086
C         90.59666       89.79673       34.69490
C         90.06303       90.98077       35.47407
O         89.64792       91.95013       34.85955
O         89.99771       90.98464       36.81912
H         89.66853       88.64307       37.08307
H         91.40148       87.81440       34.73091
H         89.77906       89.45508       34.02315
H         91.42817       90.15255       34.04647
N         92.48461       88.36511       37.59091
C         93.65951       88.54257       38.42719
C         93.81426       89.92080       39.04738
O         94.76492       90.09069       39.79408
H         91.76254       87.73577       37.96108
H         94.56985       88.26683       37.85168
H         93.57867       87.83708       39.28264
N         92.94944       90.94841       38.79887
C         93.10866       92.28784       39.37780
C         91.82450       92.76715       40.05947
O         90.79702       92.12686       39.92169
C         93.54010       93.26686       38.24772
C         94.98444       92.98513       37.82419
O         92.72938       93.14625       37.10371
H         92.17564       90.79980       38.14130
H         93.89136       92.28740       40.16618
H         93.50954       94.31698       38.61157
H         91.79622       92.99641       37.39519
H         95.09654       91.94702       37.44560
H         95.28472       93.68494       37.01551
H         95.66989       93.13283       38.68566
N         91.83614       93.89408       40.84590
C         90.63447       94.46955       41.46232
C         90.58241       95.96001       41.12685
O         91.48093       96.68712       41.52512
C         90.62208       94.29633       43.01586
C         90.82358       92.81761       43.42930
C         89.28715       94.83531       43.58623
C         90.92004       92.61995       44.94735
H         92.73827       94.36018       41.01887
H         89.73036       93.95381       41.07111
H         91.46427       94.88413       43.44427
H         91.77935       92.45135       42.99870
H         89.99543       92.19318       43.03274
H         89.26591       94.80761       44.69256
H         89.13278       95.89449       43.31146
H         88.42972       94.24351       43.19636
H         91.74195       93.24010       45.36554
H         89.97117       92.87868       45.45894
H         91.13180       91.55412       45.17157
N         89.54893       96.48572       40.41301
C         89.42598       97.91308       40.11427
C         88.80993       98.66127       41.28601
O         88.39261       98.04751       42.25357
C         88.54702       98.12975       38.84928
C         89.20336       97.53961       37.60726
O         87.29319       97.53294       39.03164
H         88.82061       95.85087       40.07749
H         90.43275       98.33917       39.90898
H         88.41678       99.22154       38.67484
H         86.69175       97.88320       38.32451
H         88.55620       97.71329       36.72086
H         90.18802       98.01898       37.42827
H         89.33317       96.45149       37.74415
N         88.69075      100.01648       41.23252
C         87.94778      100.80612       42.21320
C         86.48164      100.40104       42.18285
O         85.89199      100.17273       43.22923
C         88.06728      102.32450       41.90492
C         89.50615      102.82441       42.08342
O         87.62900      102.59830       40.59752
H         89.10254      100.50134       40.42185
H         88.35528      100.64696       43.23740
H         87.42411      102.86852       42.63696
H         87.44915      103.57323       40.54819
H         89.55057      103.91667       41.88687
H         89.84618      102.64433       43.12521
H         90.20109      102.31562       41.38409
N         85.84642      100.28122       40.98437
C         84.43480       99.95485       40.80589
C         84.07973       98.64490       41.50256
O         83.14133       98.62362       42.28600
C         84.13700       99.92582       39.28634
C         82.64209       99.95328       38.94304
C         82.37056       99.98889       37.42240
C         82.98187      101.21041       36.70234
N         82.58844      101.24454       35.29343
H         86.41329      100.43692       40.13650
H         83.83266      100.77938       41.24890
H         84.63501       99.05385       38.81041
H         84.57536      100.85329       38.86396
H         82.18504      100.85617       39.40462
H         82.14860       99.05436       39.36943
H         81.26789      100.01705       37.28471
H         82.75625       99.05873       36.95197
H         84.09118      101.17019       36.75155
H         82.64047      102.14730       37.19560
H         83.03905      102.06798       34.83136
H         82.90228      100.37293       34.80808
H         81.55036      101.34143       35.21279
N         84.84392       97.53211       41.31163
C         84.64626       96.25659       42.00194
C         84.66353       96.46413       43.50903
O         83.69492       96.09419       44.15939
C         85.70102       95.20927       41.52805
C         85.40500       94.80645       40.06363
C         86.32201       93.77704       39.44948
O         87.63259       94.01328       39.26801
O         85.85035       92.74801       39.00141
H         85.64215       97.62034       40.67752
H         83.64346       95.84628       41.74684
H         85.62546       94.29688       42.15742
H         86.73023       95.61925       41.63763
H         85.43491       95.70030       39.41246
H         84.37073       94.39671       40.03320
N         85.68907       97.10490       44.12990
C         85.66551       97.39323       45.54929
H         84.77013       98.00616       45.79560
H         85.63661       96.44978       46.13318
H         86.56942       97.97090       45.83735
H         86.48612       97.43850       43.57721
Ca        88.84969       92.57524       37.98469
O         86.91760       94.62242       36.33978
H         86.67382       95.30722       37.01161
H         87.32595       95.13859       35.60114
O         90.27613       94.61476       36.42266
H         91.07964       95.18075       36.54540
H         89.77422       95.04627       35.68959

Ca 1.0



