%chk=holoCaM-CaMKII.loop3.water1.frame500.chk
%nprocshared=20
%mem=10GB
%nosave
#b3lyp/svp scf=(tight,noincore,xqc) Test 
#IOP(5/87=12) Density=Current Pop=(MK,readradii) iop(6/33=2) iop(6/42=6)

holoCaM-CaMKII.loop3.water1.frame500 

   0  1 
C          5.23759       95.31700       95.35102
C          6.06359       95.09596       94.12194
O          6.72391       96.02119       93.66928
H          4.17132       95.10840       95.12810
H          5.58615       94.63326       96.15410
H          5.33715       96.36405       95.70861
N          6.09782       93.86558       93.53961
C          6.94468       93.57514       92.39279
C          6.46631       94.36290       91.18013
O          5.33221       94.18755       90.75656
C          6.96642       92.06010       92.10868
C          8.17114       91.66054       91.30391
O          8.39592       92.14584       90.21047
O          9.04084       90.77846       91.82298
H          5.54808       93.10491       93.96910
H          7.97966       93.86447       92.67971
H          6.02055       91.73741       91.62259
H          7.05444       91.51421       93.07353
N          7.28350       95.27760       90.59700
C          6.89765       96.13692       89.48000
C          6.53743       95.32387       88.24631
O          5.48687       95.56372       87.66851
C          8.05701       97.11093       89.18447
C          7.71444       98.25742       88.22198
C          8.90699       99.22719       88.12909
C          8.60149      100.43825       87.23867
N          9.74277      101.35493       87.19931
H          8.22339       95.39434       90.99960
H          6.02684       96.75628       89.79312
H          8.92353       96.53958       88.78946
H          8.33633       97.58617       90.15221
H          6.83527       98.81114       88.61897
H          7.46459       97.85664       87.21615
H          9.79307       98.68811       87.72780
H          9.15297       99.59924       89.14905
H          7.71585      100.97974       87.64004
H          8.36796      100.09442       86.20724
H          9.50916      102.17106       86.58890
H          9.95709      101.70646       88.16135
H         10.58315      100.86982       86.80886
N          7.36199       94.33172       87.80139
C          7.12886       93.55843       86.58130
C          6.74177       92.10175       86.85355
O          6.59769       91.35159       85.89780
C          8.36128       93.69705       85.65866
C          9.65045       93.22657       86.27893
O          9.79920       92.05955       86.59458
O         10.65999       94.09699       86.47049
H          8.20376       94.11456       88.35608
H          6.26926       93.97666       86.01274
H          8.47370       94.77372       85.40422
H          8.19046       93.14449       84.70969
N          6.45780       91.65306       88.11062
C          5.93282       90.32491       88.40256
C          6.85762       89.14735       88.14227
O          6.39046       88.03225       88.33115
H          6.49221       92.31526       88.89296
H          5.00641       90.18109       87.80441
H          5.64585       90.28132       89.47565
N          8.14463       89.27101       87.70019
C          8.95091       88.09787       87.35489
C          9.30265       87.19963       88.53874
O          9.82222       86.12083       88.28577
C         10.23860       88.48128       86.58712
C         11.26988       89.24954       87.38150
N         12.45650       89.55688       86.81094
O         11.05315       89.58529       88.53528
H          8.52806       90.20698       87.53183
H          8.34117       87.49350       86.64499
H          9.96381       89.07247       85.68713
H         10.72083       87.54204       86.23623
H         12.66225       89.27436       85.84144
H         13.17689       90.06524       87.34294
N          9.07803       87.55843       89.83898
C          9.38324       86.67390       90.95635
C         10.39578       87.22964       91.93636
O         10.68199       86.52285       92.89279
H          8.65903       88.47397       90.05521
H          9.77847       85.69777       90.60355
H          8.43994       86.46857       91.50618
N         10.96360       88.46720       91.81294
C         11.89671       88.98801       92.80916
C         12.01355       90.52883       92.71676
O         12.63294       90.88302       91.51887
C         13.26914       88.24590       92.74746
C         13.97498       88.31932       91.40399
C         14.82820       89.39388       91.08511
C         13.79511       87.29580       90.45738
C         15.45270       89.46172       89.83604
C         14.43063       87.35915       89.21262
C         15.25595       88.44727       88.89535
O         15.86511       88.52731       87.69489
H         10.68526       89.07631       91.03325
H         11.44364       88.80901       93.80986
H         13.09645       87.17600       92.98427
H         13.95294       88.60382       93.54701
H         15.00098       90.19035       91.79884
H         13.15715       86.45005       90.67987
H         16.08977       90.30527       89.59910
H         14.27748       86.56402       88.49415
H         15.75522       87.84742       87.01486
N         12.78205       91.06091       93.85560
C         12.69434       92.52650       94.03931
C         14.08586       93.08538       93.85114
O         15.00769       92.60908       94.50450
C         12.16537       92.92704       95.46478
C         10.73518       92.40631       95.77763
C         12.22339       94.45703       95.68718
C          9.63133       92.94338       94.86336
H         12.56923       90.54984       94.74232
H         12.01799       92.98764       93.28950
H         12.84177       92.47221       96.22315
H         10.48051       92.68975       96.82325
H         10.71292       91.29904       95.73120
H         13.26376       94.83269       95.61127
H         11.60945       95.00132       94.94166
H         11.86520       94.71597       96.70633
H          9.55790       94.04887       94.91706
H          9.80597       92.63168       93.81559
H          8.65384       92.52854       95.18818
N         14.30112       94.15022       93.03040
C         15.60326       94.78112       92.86726
C         15.62095       96.14314       93.53542
O         14.60135       96.56596       94.07088
C         15.94060       94.87682       91.36934
O         14.99571       95.67815       90.71214
H         13.49138       94.57484       92.54795
H         16.39567       94.17677       93.36243
H         15.92943       93.85121       90.93677
H         16.95400       95.31319       91.23546
H         15.24599       95.67257       89.75200
N         16.75572       96.88840       93.56345
C         16.83740       98.21266       94.17051
C         15.85429       99.16148       93.51381
O         15.11100       99.83147       94.21212
C         18.25610       98.77334       94.03760
H         17.60513       96.49687       93.12081
H         16.61228       98.14337       95.25972
H         18.54741       98.86911       92.96976
H         18.31727       99.77328       94.51864
H         18.97687       98.09845       94.54704
N         15.77430       99.21590       92.15402
C         14.84863      100.07742       91.42664
C         13.42119       99.90299       91.90136
O         12.78354      100.89543       92.23123
C         14.92514       99.76278       89.92499
H         16.38443       98.58693       91.61118
H         15.14515      101.13914       91.57176
H         14.23687      100.42332       89.35581
H         15.95827       99.92518       89.55190
H         14.64370       98.70451       89.72904
N         12.85095       98.67105       91.95799
C         11.45638       98.46112       92.32957
C         11.18008       98.95049       93.74024
O         10.35761       99.83973       93.90648
C         11.07313       96.97832       92.22352
C         11.24305       96.41664       90.80232
C         10.87868       94.96577       90.75373
O         10.52387       94.37842       91.76452
O         11.03153       94.26198       89.62293
H         13.43811       97.86173       91.70633
H         10.81184       99.02629       91.61786
H         10.00652       96.86345       92.52324
H         11.70179       96.38090       92.91879
H         12.29737       96.48958       90.47245
H         10.63189       96.99698       90.09319
N         11.82282       98.40426       94.80880
C         11.56941       98.83369       96.16577
H         10.50213       98.66533       96.42348
H         12.20017       98.24971       96.86991
H         11.81547       99.91076       96.27486
H         12.50915       97.65497       94.66160
Ca        11.28469       92.14013       90.23642
O         13.35968       92.68037       87.95086
H         13.96171       93.03655       88.65154
H         13.95685       92.48071       87.18666

Ca 1.0



