%chk=holoCaM-CaMKII.loop1.water2.frame426.chk
%nprocshared=20
%mem=10GB
%nosave
#b3lyp/svp scf=(tight,noincore,xqc) Test 
#IOP(5/87=12) Density=Current Pop=(MK,readradii) iop(6/33=2) iop(6/42=6)

holoCaM-CaMKII.loop1.water2.frame426 

   0  1 
C         72.47354       54.24614       29.88354
C         72.97344       53.11361       29.03530
O         72.67889       51.96955       29.34313
H         71.36436       54.23682       29.90434
H         72.86165       54.13153       30.91770
H         72.81200       55.22834       29.48996
N         73.74435       53.35949       27.94197
C         74.28789       52.30548       27.09279
C         75.24283       51.43641       27.90209
O         76.13924       51.98059       28.53277
C         75.02379       52.94453       25.89857
C         75.46965       51.95157       24.86470
O         75.15744       50.64609       24.96088
O         76.09873       52.34545       23.90049
H         73.95292       54.34253       27.70521
H         73.44481       51.70302       26.68419
H         75.90507       53.51158       26.26969
H         74.34068       53.65650       25.38493
N         75.11795       50.07732       27.91369
C         75.95979       49.19870       28.72073
C         76.90246       48.40924       27.82608
O         78.10906       48.56766       27.95099
C         75.08283       48.24372       29.56756
C         74.02126       48.93542       30.43869
C         74.61588       49.87142       31.49541
C         73.51272       50.44759       32.39411
N         74.07802       51.33540       33.40831
H         74.40139       49.64779       27.31544
H         76.59105       49.79938       29.41127
H         75.73943       47.61808       30.21066
H         74.52283       47.55967       28.89605
H         73.44288       48.13722       30.95399
H         73.31370       49.49493       29.79070
H         75.15239       50.70773       30.99967
H         75.33350       49.30110       32.12399
H         72.97183       49.61514       32.89729
H         72.77974       51.01436       31.77963
H         74.75604       50.80998       34.00688
H         74.56149       52.14151       32.94957
H         73.30637       51.70099       34.01161
N         76.41916       47.53921       26.89447
C         77.26683       46.75947       25.98764
C         78.08988       47.60819       25.00305
O         78.91807       47.03432       24.30896
C         76.41965       45.72211       25.20666
C         75.30155       46.33279       24.39854
O         75.01585       47.64392       24.51471
O         74.63864       45.63194       23.65186
H         75.40051       47.40179       26.85979
H         77.99094       46.18767       26.61004
H         75.97038       44.99395       25.91582
H         77.09423       45.15648       24.52688
N         77.94970       48.96034       24.89593
C         78.79987       49.79526       24.05872
C         78.66197       49.55226       22.56766
O         79.66079       49.26535       21.92380
H         77.25589       49.44548       25.47604
H         79.85868       49.66043       24.37159
H         78.53620       50.86016       24.23842
N         77.46411       49.72823       21.94250
C         77.28398       49.70382       20.48444
C         76.75245       51.04367       19.97324
O         76.37107       51.13430       18.81472
C         76.39740       48.51134       20.06913
C         75.00884       48.49215       20.63099
O         74.52451       49.51668       21.35207
O         74.34717       47.47268       20.52267
H         76.64651       49.94290       22.53258
H         78.25245       49.53124       19.96704
H         76.91365       47.59658       20.43622
H         76.33108       48.43955       18.96246
N         76.75100       52.14420       20.77766
C         76.26379       53.45406       20.39236
C         74.77211       53.46748       20.18847
O         74.32028       54.04274       19.21186
H         77.14904       52.07964       21.72171
H         76.80666       53.83822       19.50165
H         76.46692       54.15049       21.23569
N         73.95356       52.93223       21.13830
C         72.49158       53.02586       21.14144
C         71.92813       52.64191       22.51085
O         72.58159       51.96531       23.29431
C         71.77105       52.15346       20.06244
C         71.93387       52.60172       18.60999
O         72.17470       50.81334       20.16328
H         74.42150       52.51698       21.95541
H         72.23068       54.09880       21.00464
H         70.67118       52.23065       20.23739
H         71.68762       50.42166       20.93236
H         71.27296       51.98960       17.95945
H         71.63378       53.66641       18.49956
H         72.96181       52.43930       18.23840
N         70.69081       53.08570       22.85919
C         70.03380       52.79748       24.12785
C         68.71834       52.12421       23.81588
O         67.95157       52.65199       23.02032
C         69.82467       54.10905       24.93667
C         71.20460       54.73283       25.27573
C         69.02145       53.82744       26.22775
C         71.11627       56.10449       25.94467
H         70.18448       53.68663       22.18931
H         70.64940       52.11975       24.76235
H         69.24485       54.82302       24.31018
H         71.78518       54.87615       24.34010
H         71.77740       54.04187       25.93273
H         69.56598       53.11270       26.88235
H         68.82314       54.75762       26.79460
H         68.02563       53.39944       25.99048
H         72.14209       56.49278       26.11726
H         70.57418       56.81426       25.28447
H         70.61045       56.05244       26.92882
N         68.37392       50.96934       24.44441
C         67.13285       50.26121       24.17067
C         66.18352       50.39776       25.33931
O         66.53484       50.98270       26.35501
C         67.43590       48.76461       23.89659
C         68.38931       48.58695       22.71539
O         68.00105       48.18295       25.04362
H         68.99979       50.59154       25.17204
H         66.61801       50.69601       23.28598
H         66.48144       48.24465       23.65443
H         67.96189       47.19846       24.92254
H         67.95487       49.02982       21.79577
H         69.36700       49.06825       22.93004
H         68.56067       47.50307       22.54228
N         64.94168       49.85389       25.25360
C         64.02730       49.77219       26.38397
C         64.64913       48.90405       27.46483
O         64.53665       49.23155       28.63705
C         62.66564       49.16769       25.95524
C         61.93182       50.07832       24.96118
O         62.85311       47.89484       25.38921
H         64.66251       49.42358       24.35918
H         63.82034       50.78765       26.79269
H         62.03459       49.08267       26.87161
H         61.97405       47.43457       25.41452
H         62.50957       50.20411       24.02225
H         60.94507       49.63757       24.70592
H         61.75985       51.07844       25.41299
N         65.31587       47.76287       27.12252
C         65.87747       46.83301       28.09770
C         67.04764       47.42302       28.88591
O         67.47062       46.78199       29.83823
C         66.36078       45.52861       27.41732
C         65.28719       44.85462       26.54182
C         65.80811       43.54882       25.93590
C         64.80311       42.98683       24.92113
N         65.27621       41.72363       24.35909
H         65.38981       47.54155       26.12198
H         65.05863       46.56704       28.80345
H         66.67812       44.81429       28.20932
H         67.24267       45.75497       26.77892
H         65.01303       45.51936       25.69959
H         64.37271       44.64985       27.13970
H         65.98791       42.81448       26.75109
H         66.76787       43.73954       25.40654
H         64.66909       43.72444       24.09689
H         63.81726       42.82645       25.41038
H         64.59097       41.39185       23.64245
H         66.20720       41.85685       23.90115
H         65.35245       41.00537       25.11522
N         67.63278       48.61378       28.55031
C         68.74403       49.20818       29.29251
C         68.33147       50.51030       29.96739
O         69.12669       51.03532       30.73488
C         69.93044       49.50073       28.34739
C         70.42007       48.26202       27.58918
C         71.53377       48.61355       26.64509
O         72.71557       47.97960       26.73937
O         71.36377       49.44443       25.76602
H         67.29084       49.12483       27.73029
H         69.07771       48.51551       30.09612
H         70.77726       49.92236       28.93362
H         69.60582       50.26606       27.60687
H         69.59047       47.83372       26.99388
H         70.77048       47.49210       28.30936
N         67.12494       51.10271       29.72477
C         66.69375       52.33674       30.34461
H         65.73196       52.16002       30.87025
H         67.43064       52.72542       31.07671
H         66.53482       53.10321       29.55701
H         66.46800       50.69038       29.05540
Ca        73.58907       48.75274       23.20718
O         71.28474       46.72584       24.25286
H         72.11038       46.20861       24.08181
H         70.56505       46.04744       24.27430
O         71.25766       47.81242       21.53476
H         70.50717       47.36979       21.06726
H         71.89452       48.03452       20.81310

Ca 1.0



