%chk=holoCaM.loop4.water3.frame480.chk
%nprocshared=20
%mem=10GB
%nosave
#b3lyp/svp scf=(tight,noincore,xqc) Test 
#IOP(5/87=12) Density=Current Pop=(MK,readradii) iop(6/33=2) iop(6/42=6)

holoCaM.loop4.water3.frame480 

   -3  1 
C        108.45461       53.04935       78.17794
C        108.69922       51.57938       78.34047
O        108.39905       50.82555       77.42622
H        107.76860       53.41154       78.96885
H        109.42278       53.59091       78.25231
H        108.01342       53.26648       77.18091
N        109.30511       51.10868       79.46839
C        109.76793       49.73235       79.59366
C        109.61464       49.22930       81.03105
O        110.04241       49.92677       81.94076
C        111.24811       49.71271       79.15972
C        111.77122       48.33226       78.89760
O        112.93732       48.17895       78.57336
O        110.94857       47.27013       78.93105
H        109.61377       51.79774       80.17188
H        109.20583       49.07856       78.89137
H        111.86904       50.23039       79.92234
H        111.35527       50.26012       78.19711
N        109.07511       48.00184       81.30610
C        108.91049       47.46847       82.66437
C        109.92000       46.34401       82.95737
O        110.06526       45.98178       84.11600
C        107.45227       46.90127       82.83548
C        106.33008       47.84365       82.32949
C        107.13761       46.43124       84.27296
C        106.15458       49.13863       83.11663
H        108.79458       47.40669       80.51782
H        109.09684       48.28197       83.39912
H        107.38100       46.00561       82.17721
H        105.36429       47.29041       82.36314
H        106.51362       48.09436       81.26615
H        107.23933       47.26552       84.99756
H        106.10288       46.03088       84.32723
H        107.79556       45.60381       84.59696
H        105.87828       48.92750       84.17000
H        107.07976       49.74724       83.08283
H        105.32441       49.72126       82.66260
N        110.57412       45.67741       81.96024
C        111.22060       44.37672       82.17757
C        112.44051       44.10790       81.29190
O        113.05097       43.06404       81.48053
C        110.16658       43.26453       81.92562
C        109.40157       43.54246       80.65986
O        110.05817       43.86960       79.53296
O        108.19190       43.70279       80.71063
H        110.36223       45.94493       80.99448
H        111.58305       44.29189       83.22531
H        109.43399       43.26477       82.76305
H        110.63948       42.26052       81.89555
N        112.84824       44.94714       80.29981
C        113.97512       44.65877       79.42586
C        113.79456       43.35843       78.66694
O        114.63841       42.48379       78.80161
H        112.35240       45.82538       80.14155
H        114.90493       44.61370       80.03398
H        114.08874       45.48533       78.69144
N        112.71640       43.16029       77.85395
C        112.48982       41.92720       77.09801
C        112.43694       42.16826       75.58984
O        112.13264       41.23139       74.86463
C        111.22998       41.19208       77.62260
C        109.90643       41.88187       77.44045
O        109.82371       42.97294       76.90803
O        108.78854       41.28413       77.89289
H        112.01901       43.91362       77.77994
H        113.32333       41.21056       77.26473
H        111.36887       41.00104       78.70876
H        111.15805       40.20674       77.11332
N        112.78189       43.36823       75.03357
C        112.78838       43.59899       73.59531
C        111.40883       43.70302       72.97246
O        111.34828       43.80370       71.75360
H        113.13562       44.12471       75.63216
H        113.36755       42.78486       73.10707
H        113.30950       44.55638       73.37876
N        110.26481       43.71697       73.71643
C        108.92633       43.80913       73.14195
C        108.18615       45.02985       73.66062
O        108.67424       45.70722       74.55773
C        108.09388       42.56966       73.54178
C        108.74473       41.23349       73.17411
C        107.83372       40.08457       73.53495
N        107.43781       39.87973       74.81460
O        107.44492       39.32973       72.65668
H        110.33678       43.66506       74.73668
H        108.98255       43.87159       72.03270
H        107.09800       42.62195       73.05056
H        107.93758       42.59155       74.64062
H        109.70431       41.11656       73.71962
H        108.95169       41.21597       72.08230
H        107.75037       40.49979       75.57422
H        106.80896       39.09726       75.04908
N        106.95141       45.32214       73.16934
C        106.05243       46.31756       73.73381
C        104.80624       45.58641       74.19399
O        104.15346       44.93999       73.38291
C        105.74676       47.44316       72.70783
C        104.61159       48.36955       73.18473
C        107.00869       48.29282       72.47859
H        106.59249       44.76023       72.37966
H        106.50730       46.80471       74.61723
H        105.42564       46.98939       71.74450
H        104.86577       48.84392       74.15477
H        104.42578       49.16903       72.43592
H        103.66281       47.80418       73.29824
H        107.32582       48.77578       73.43095
H        107.84676       47.66988       72.10499
H        106.80921       49.09441       71.73608
N        104.40788       45.66930       75.49324
C        103.20203       45.03734       76.01098
C        102.06816       46.04274       75.98582
O        102.30166       47.20709       75.71199
C        103.50498       44.51953       77.44099
C        102.37704       43.83199       78.16388
N        101.83609       42.69110       77.68230
O        101.97136       44.29262       79.22055
H        104.93660       46.28523       76.12908
H        102.90889       44.19069       75.35125
H        103.84422       45.38267       78.05855
H        104.33193       43.78910       77.38164
H        102.17610       42.27583       76.80390
H        101.08195       42.21676       78.19916
N        100.79150       45.64670       76.21190
C         99.65157       46.56153       76.23144
C         99.79758       47.62568       77.31016
O         99.52062       48.78240       77.02362
C         98.30890       45.78538       76.28848
C         98.27159       44.62551       77.26330
C         98.23625       43.31113       76.75733
C         98.29458       44.81654       78.65088
C         98.25002       42.21518       77.61933
C         98.31161       43.71580       79.51628
C         98.29593       42.41092       79.00079
O         98.32897       41.34006       79.81870
H        100.63083       44.64217       76.35818
H         99.60935       47.11445       75.26439
H         98.18239       45.35983       75.26835
H         97.45315       46.47698       76.44405
H         98.21819       43.12970       75.68948
H         98.30279       45.81284       79.06179
H         98.23769       41.21291       77.20943
H         98.34231       43.87672       80.58601
H         98.38026       41.42781       80.78065
N        100.29909       47.33372       78.54163
C        100.51528       48.34711       79.57268
C        101.45963       49.43072       79.06948
O        101.17652       50.60448       79.26360
C        101.07977       47.71878       80.87357
C        100.13815       46.68925       81.53279
C         98.80344       47.28167       81.89749
O         98.73415       48.32015       82.75186
O         97.77570       46.82045       81.42737
H        100.57040       46.36132       78.73609
H         99.54723       48.82650       79.83602
H        101.26224       48.53089       81.61272
H        102.05539       47.22683       80.66513
H        100.61347       46.31032       82.46278
H         99.99517       45.81984       80.86072
N        102.59865       49.09961       78.40186
C        103.57276       50.08155       77.92420
C        102.97383       51.00024       76.87052
O        102.93054       52.20291       77.08882
C        104.81884       49.37416       77.34846
C        105.51253       48.52209       78.41933
C        106.67144       47.73043       77.90544
O        107.24741       46.86606       78.74966
O        107.06013       47.81854       76.75434
H        102.77435       48.09744       78.24071
H        103.91047       50.69614       78.78934
H        105.54120       50.13121       76.97012
H        104.51708       48.71952       76.50440
H        104.80528       47.77674       78.83226
H        105.85555       49.17274       79.25076
N        102.51355       50.50438       75.68969
C        101.97553       51.34035       74.64053
H        101.08860       51.89562       75.00963
H        102.75118       52.05396       74.29079
H        101.66743       50.70791       73.77921
H        102.55654       49.49780       75.51447
Ca       108.86717       45.36403       78.35913
O        106.72914       43.92203       77.39980
H        106.80791       43.39642       78.23523
H        107.19233       43.37931       76.71707
O        111.56364       45.99941       76.23738
H        112.32213       46.13091       76.85896
H        111.91282       46.29361       75.35907
O        109.72825       48.00529       75.87687
H        110.07978       48.40009       75.04083
H        109.61912       48.77151       76.49018

Ca 1.0



