%chk=holoCaM.loop1.water2.frame436.chk
%nprocshared=20
%mem=10GB
%nosave
#b3lyp/svp scf=(tight,noincore,xqc) Test 
#IOP(5/87=12) Density=Current Pop=(MK,readradii) iop(6/33=2) iop(6/42=6)

holoCaM.loop1.water2.frame436 

   0  1 
C         89.30711      104.22897       50.03454
C         89.28967      105.46540       49.19709
O         88.94081      106.52425       49.69938
H         88.60980      103.48697       49.59286
H         90.33292      103.80629       50.05574
H         88.98385      104.45706       51.07187
N         89.66937      105.40224       47.89264
C         89.64639      106.56239       47.01759
C         88.19009      106.98399       46.80177
O         87.47894      106.31179       46.06803
C         90.37520      106.19986       45.70166
C         90.57017      107.33801       44.75824
O         90.13224      108.56987       45.05641
O         91.15782      107.14339       43.71036
H         90.00300      104.49673       47.52463
H         90.22794      107.37338       47.51420
H         89.82697      105.38661       45.17779
H         91.39195      105.82357       45.95477
N         87.65325      108.02535       47.50637
C         86.23976      108.40892       47.43622
C         85.79648      108.93373       46.08461
O         84.59794      108.90440       45.83774
C         85.88511      109.49487       48.48664
C         85.47536      108.89379       49.83734
C         85.06808      109.95148       50.88394
C         83.91466      110.87298       50.43072
N         83.50203      111.77038       51.50890
H         88.25874      108.50984       48.17996
H         85.62237      107.50282       47.62674
H         84.99311      110.04696       48.13052
H         86.71223      110.23530       48.58224
H         86.30304      108.27759       50.24753
H         84.59925      108.22894       49.66271
H         85.95010      110.57267       51.14774
H         84.74139      109.40180       51.79364
H         83.04200      110.25834       50.11628
H         84.23626      111.49589       49.56835
H         82.73211      112.38872       51.16342
H         83.14912      111.21573       52.32194
H         84.30634      112.36823       51.80788
N         86.65957      109.50110       45.20427
C         86.22173      110.09248       43.93656
C         86.74613      109.34102       42.72954
O         86.32915      109.65778       41.62359
C         86.58152      111.59402       43.87430
C         88.05578      111.91986       44.02129
O         88.97240      110.94685       44.24474
O         88.40911      113.08541       43.97006
H         87.65101      109.52440       45.46530
H         85.11412      110.02428       43.85082
H         86.03273      112.11529       44.68979
H         86.21062      112.00693       42.90974
N         87.63048      108.31673       42.85384
C         88.07605      107.50863       41.74078
C         88.74657      108.30124       40.64543
O         88.33922      108.15942       39.50118
H         87.98970      108.05620       43.77986
H         87.20947      106.95080       41.32326
H         88.80442      106.76005       42.12146
N         89.81882      109.10242       40.90664
C         90.64265      109.68521       39.84384
C         92.05368      109.10525       39.87345
O         92.83704      109.42768       38.99112
C         90.67556      111.22841       39.89880
C         91.40139      111.77987       41.08992
O         92.41403      112.44627       40.94503
O         90.92296      111.56813       42.31978
H         90.09747      109.23382       41.89079
H         90.21410      109.41987       38.85404
H         89.63995      111.62992       39.88504
H         91.19297      111.59354       38.98460
N         92.45127      108.25735       40.86702
C         93.76825      107.67624       40.97622
C         94.52051      108.20482       42.17871
O         95.62004      107.71381       42.39344
H         91.80713      107.99771       41.61464
H         94.38589      107.88858       40.07712
H         93.65397      106.57291       41.05366
N         94.06015      109.24603       42.95403
C         94.90146      109.88246       43.96528
C         94.20214      110.00839       45.36523
O         93.42387      111.18069       45.41817
C         95.40118      111.23700       43.38429
C         96.31258      112.04234       44.31960
O         96.06489      111.01698       42.16334
H         93.15584      109.69007       42.73959
H         95.80325      109.25143       44.11075
H         94.51532      111.86717       43.16436
H         96.87086      110.46726       42.35294
H         96.63193      112.97406       43.80767
H         95.77551      112.34315       45.24139
H         97.21360      111.45295       44.59119
N         95.26474      110.12148       46.38296
C         94.89682      110.18713       47.81108
C         95.34699      111.54715       48.32674
O         96.49288      111.92191       48.12078
C         95.56696      109.00858       48.59718
C         94.98519      107.62656       48.17765
C         95.50717      109.17986       50.12571
C         93.52019      107.38303       48.57576
H         96.07883      109.48684       46.21420
H         93.80203      110.11343       47.95111
H         96.65106      109.00768       48.34473
H         95.59442      106.82664       48.65165
H         95.07512      107.50120       47.07795
H         94.46871      109.23256       50.49006
H         96.01841      108.32775       50.62256
H         96.03120      110.10618       50.44003
H         92.83504      108.12061       48.11285
H         93.20775      106.37360       48.23499
H         93.39776      107.40872       49.67808
N         94.47987      112.32698       49.03227
C         94.76817      113.66915       49.52797
C         94.85873      113.64996       51.04872
O         94.80849      112.57924       51.63537
C         93.65628      114.65004       49.04411
C         93.50780      114.67472       47.51833
O         92.41572      114.37941       49.65334
H         93.55727      111.94185       49.25543
H         95.74420      114.03280       49.13892
H         93.94068      115.68075       49.34045
H         92.02706      113.56588       49.24374
H         93.18464      113.68175       47.14041
H         92.73935      115.42484       47.23403
H         94.46910      114.95060       47.03859
N         94.99530      114.80498       51.76279
C         95.00946      114.83547       53.22805
C         93.67116      114.41233       53.85678
O         93.62887      114.31102       55.07517
C         95.40134      116.24214       53.74886
C         96.83748      116.61332       53.35131
O         94.49559      117.19834       53.25924
H         95.09626      115.68977       51.24567
H         95.78604      114.12048       53.58324
H         95.36237      116.22430       54.86332
H         94.63205      118.02509       53.79136
H         97.09816      117.60886       53.76894
H         97.55019      115.86881       53.76710
H         96.96165      116.65187       52.24988
N         92.55523      114.12954       53.11606
C         91.28922      113.66747       53.69049
C         90.98884      112.22242       53.31256
O         90.02220      111.67856       53.82912
C         90.13436      114.54720       53.19470
C         90.23206      116.00148       53.67549
C         89.07106      116.85134       53.13149
C         89.17763      117.09838       51.61456
N         88.03295      117.86447       51.12709
H         92.59225      114.22058       52.09587
H         91.33242      113.69296       54.80156
H         89.16897      114.13589       53.56551
H         90.13209      114.48826       52.08756
H         91.20020      116.46286       53.38375
H         90.17214      115.99217       54.78626
H         89.08608      117.83850       53.64165
H         88.10712      116.35262       53.37642
H         89.21370      116.14415       51.05178
H         90.11666      117.65832       51.40508
H         88.15175      118.03812       50.10269
H         87.15392      117.31652       51.27452
H         87.96823      118.78139       51.62474
N         91.78307      111.52608       52.45442
C         91.62113      110.11448       52.14981
C         92.80060      109.33578       52.73428
O         92.81036      108.11844       52.61614
C         91.54253      109.93219       50.61494
C         90.40187      110.74452       49.97213
C         90.51550      110.77905       48.47040
O         91.59942      111.31797       47.88780
O         89.60582      110.38235       47.76654
H         92.57505      111.99318       52.00794
H         90.69523      109.71206       52.61541
H         91.42725      108.85818       50.35085
H         92.50119      110.28232       50.19629
H         90.45122      111.80073       50.30708
H         89.42368      110.32001       50.28805
N         93.82872      109.96289       53.38920
C         94.94385      109.24903       53.96749
H         95.66121      109.97468       54.41201
H         94.58348      108.57482       54.77143
H         95.47377      108.66585       53.18702
H         93.84837      110.98526       53.49897
Ca        91.17826      111.09730       44.89178
O         92.84839      113.83832       44.46164
H         92.83205      113.49066       43.53607
H         92.12414      114.51162       44.48492
O         90.19725      114.02073       46.64271
H         90.39316      114.96655       46.42732
H         89.99775      113.61035       45.76650

Ca 1.0



