%chk=holoCaM.loop2.water2.frame212.chk
%nprocshared=20
%mem=10GB
%nosave
#b3lyp/svp scf=(tight,noincore,xqc) Test 
#IOP(5/87=12) Density=Current Pop=(MK,readradii) iop(6/33=2) iop(6/42=6)

holoCaM.loop2.water2.frame212 

   -2  1 
C         16.17711       68.65441      111.16724
C         16.51924       67.67587      112.25522
O         16.85808       66.53687      111.96946
H         15.13976       69.02499      111.30683
H         16.87283       69.52036      111.22421
H         16.26834       68.19414      110.16170
N         16.47698       68.08988      113.54810
C         16.87469       67.27500      114.69064
C         15.95196       66.08040      114.89790
O         14.75185       66.27498      115.02729
C         16.87583       68.17237      115.94797
C         17.38885       67.53720      117.21056
O         16.94795       67.93179      118.27721
O         18.42436       66.67383      117.22919
H         16.20135       69.07059      113.71689
H         17.90815       66.93849      114.50793
H         15.83474       68.51827      116.13323
H         17.48217       69.08210      115.76662
N         16.46246       64.81765      114.99782
C         15.65869       63.62830      115.27333
C         16.02087       62.97985      116.61316
O         15.39862       61.98174      116.95102
C         15.86288       62.61420      114.13670
H         17.47795       64.69454      114.90380
H         14.57935       63.88807      115.31391
H         15.57376       63.06228      113.16257
H         16.92863       62.30001      114.07874
H         15.23980       61.70765      114.29802
N         17.03256       63.45024      117.40615
C         17.52669       62.73668      118.58478
C         17.90257       63.64437      119.77015
O         18.33228       63.10733      120.78198
C         18.70628       61.84325      118.14055
C         19.72160       62.57545      117.30398
O         20.35346       63.65354      117.78554
O         19.94727       62.21254      116.16056
H         17.59646       64.23976      117.07155
H         16.74778       62.04722      118.98066
H         18.29383       61.02071      117.51478
H         19.19090       61.37592      119.02399
N         17.73900       64.99936      119.75529
C         18.01087       65.87030      120.89931
C         19.46531       65.98743      121.35159
O         19.68914       66.68115      122.33370
H         17.31369       65.43448      118.93316
H         17.40253       65.51652      121.75913
H         17.66915       66.89889      120.65227
N         20.49968       65.35198      120.72872
C         21.88506       65.38648      121.21527
C         22.60664       66.73989      121.07189
O         23.78447       66.79406      121.39967
C         22.70611       64.23285      120.57993
C         22.94297       64.29541      119.09259
N         23.63965       63.30404      118.49191
O         22.51238       65.21964      118.42304
H         20.28425       64.74951      119.92911
H         21.86992       65.13458      122.29914
H         22.18016       63.27736      120.79924
H         23.69997       64.18707      121.07548
H         24.00242       62.50961      119.03866
H         23.81813       63.32599      117.47981
N         21.98347       67.87780      120.64307
C         22.64037       69.17721      120.54863
C         23.60320       69.33979      119.37991
O         24.14196       70.42815      119.24349
H         20.97676       67.86449      120.45173
H         23.15416       69.40340      121.50893
H         21.85554       69.95073      120.40247
N         23.86540       68.33511      118.49487
C         24.76610       68.46563      117.34661
C         24.04265       68.11139      116.04636
O         22.88194       67.73715      116.08731
C         25.99296       67.54135      117.56349
C         26.81862       68.00006      118.76921
O         25.58901       66.21146      117.77283
H         23.42773       67.42185      118.64108
H         25.13204       69.51051      117.24200
H         26.68021       67.59128      116.68915
H         25.31581       65.84613      116.89175
H         27.70324       67.34048      118.89444
H         27.17773       69.04026      118.61319
H         26.21878       67.96305      119.70306
N         24.69880       68.17188      114.84768
C         24.11342       67.73926      113.57918
C         24.80728       66.45758      113.15259
O         26.00037       66.46335      112.88379
C         24.19184       68.87263      112.49976
C         23.10939       69.94208      112.80652
C         24.01186       68.32016      111.06766
C         23.10514       71.14569      111.86014
H         25.68359       68.47526      114.83746
H         23.04073       67.48173      113.70844
H         25.20509       69.33148      112.53556
H         23.25138       70.32193      113.84047
H         22.10648       69.46825      112.74075
H         24.81573       67.59679      110.82416
H         23.02654       67.82618      110.95046
H         24.11889       69.11798      110.30713
H         22.88040       70.84766      110.81567
H         22.30264       71.84864      112.16934
H         24.08009       71.67273      111.89693
N         24.08105       65.30313      113.08188
C         24.61707       64.02410      112.62883
C         24.77702       64.04419      111.11664
O         24.43666       65.04559      110.50712
C         23.66579       62.87482      113.03510
C         23.47723       62.79139      114.52936
O         22.88798       63.79797      115.20366
O         23.83515       61.79501      115.13642
H         23.08997       65.34004      113.35398
H         25.59893       63.84038      113.12001
H         24.09306       61.91151      112.68383
H         22.67111       63.00933      112.55717
N         25.29676       62.98846      110.42898
C         25.45311       63.01790      108.97800
C         24.11345       63.03145      108.23219
O         23.95163       63.92370      107.41466
C         26.38223       61.89534      108.46422
C         26.57607       61.99704      106.96416
C         26.20957       60.92905      106.12686
C         27.10594       63.16740      106.38508
C         26.36431       61.03355      104.74057
C         27.25002       63.26957      104.99980
C         26.87985       62.20397      104.17767
H         25.63679       62.16805      110.95486
H         25.99092       63.95989      108.73173
H         25.98999       60.89756      108.72822
H         27.37145       61.99350      108.96071
H         25.80006       60.01761      106.54409
H         27.39967       64.00861      106.99866
H         26.07973       60.20833      104.10122
H         27.64681       64.17787      104.56459
H         26.99260       62.28630      103.10460
N         23.11528       62.10156      108.41522
C         21.84277       62.12285      107.68825
C         21.18142       63.48333      107.73439
O         20.72212       63.99237      106.72124
C         20.97038       61.11620      108.46061
C         21.99370       60.12278      108.94714
C         23.12506       61.03949      109.40133
H         22.00812       61.78078      106.64294
H         20.55002       61.58554      109.38032
H         20.12415       60.69556      107.87575
H         21.63401       59.41317      109.72278
H         22.34478       59.54504      108.06242
H         22.91893       61.48587      110.39967
H         24.04945       60.44163      109.43402
N         21.14173       64.12844      108.92471
C         20.53693       65.42573      109.17667
C         21.20014       66.48970      108.32306
O         20.50527       67.21595      107.62697
C         20.64917       65.73413      110.68749
C         19.89361       64.65307      111.49786
C         19.96889       64.83397      112.97033
O         20.58868       65.88583      113.52095
O         19.42281       64.01779      113.69211
H         21.61192       63.65429      109.70854
H         19.45136       65.39397      108.93040
H         20.20800       66.73225      110.90316
H         21.71950       65.74751      110.99173
H         20.29035       63.63850      111.30980
H         18.82253       64.65972      111.20334
N         22.55397       66.59599      108.28444
C         23.24618       67.54568      107.44389
H         24.34402       67.39634      107.53746
H         22.96245       67.38857      106.38125
H         22.99645       68.58077      107.75390
H         23.11715       65.94901      108.84051
Ca        19.91230       66.23715      115.61036
O         20.54118       69.09269      115.01484
H         20.80286       68.41598      114.34283
H         19.58100       69.24363      114.83866
O         20.87968       67.65435      117.92270
H         20.40078       67.00944      118.50025
H         20.34217       68.48381      117.96070

Ca 1.0



