%chk=holoCaM.loop2.water2.frame152.chk
%nprocshared=20
%mem=10GB
%nosave
#b3lyp/svp scf=(tight,noincore,xqc) Test 
#IOP(5/87=12) Density=Current Pop=(MK,readradii) iop(6/33=2) iop(6/42=6)

holoCaM.loop2.water2.frame152 

   -2  1 
C         -0.07175       58.25013      -14.08615
C          1.13044       57.34511      -14.10471
O          1.82964       57.26106      -13.10637
H         -0.77658       57.91503      -13.29502
H          0.23747       59.29491      -13.88299
H         -0.61459       58.22545      -15.05612
N          1.39870       56.59396      -15.20619
C          2.46534       55.60006      -15.26920
C          3.84227       56.24811      -15.37350
O          4.07352       56.97884      -16.32682
C          2.21643       54.70767      -16.50147
C          3.08216       53.48569      -16.64605
O          3.15770       52.96966      -17.74911
O          3.52999       52.77527      -15.59015
H          0.74836       56.66923      -16.00457
H          2.37268       54.95814      -14.37337
H          2.30783       55.32438      -17.42329
H          1.16947       54.33723      -16.47472
N          4.82110       55.98201      -14.45940
C          6.18801       56.47908      -14.55668
C          7.21720       55.35294      -14.73529
O          8.39002       55.68284      -14.84836
C          6.50520       57.28403      -13.28804
H          4.60052       55.39682      -13.65086
H          6.29381       57.15533      -15.43182
H          5.78132       58.11889      -13.17297
H          6.43689       56.63347      -12.38786
H          7.52814       57.71447      -13.33571
N          6.88478       54.02026      -14.73844
C          7.88864       52.94804      -14.77491
C          7.54580       51.76442      -15.69840
O          8.34568       50.84034      -15.75652
C          8.17596       52.47781      -13.32828
C          7.02568       51.83920      -12.60107
O          7.18652       51.44672      -11.32414
O          5.95226       51.66672      -13.14484
H          5.90871       53.75604      -14.58046
H          8.85483       53.35726      -15.14344
H          8.49735       53.36360      -12.73872
H          9.01755       51.75290      -13.33767
N          6.41438       51.71502      -16.46287
C          6.10302       50.62025      -17.38356
C          5.74713       49.27575      -16.74907
O          5.50688       48.34392      -17.50408
H          5.78031       52.52081      -16.46568
H          6.96281       50.48148      -18.07491
H          5.22592       50.91581      -17.99918
N          5.68981       49.07968      -15.40055
C          5.40100       47.78348      -14.77183
C          3.94022       47.30187      -14.88673
O          3.62825       46.27866      -14.29223
C          5.86480       47.79986      -13.29371
C          5.14327       48.75116      -12.37550
N          5.50308       48.81169      -11.07526
O          4.24651       49.46999      -12.78673
H          5.93862       49.86495      -14.79121
H          6.04920       47.01357      -15.24710
H          6.94624       48.06025      -13.27208
H          5.76071       46.77609      -12.87302
H          6.26337       48.22055      -10.70899
H          5.02257       49.45222      -10.43396
N          3.00338       47.93824      -15.64957
C          1.62907       47.47085      -15.80921
C          0.69920       47.71548      -14.62438
O         -0.46469       47.36089      -14.74934
H          3.28405       48.73509      -16.22978
H          1.63628       46.39060      -16.07579
H          1.17751       48.01683      -16.66534
N          1.10721       48.30238      -13.46050
C          0.22943       48.53135      -12.30716
C          0.24827       49.99198      -11.84456
O          0.98110       50.80173      -12.39142
C          0.68493       47.60660      -11.14520
C          0.44671       46.13470      -11.48662
O          2.04870       47.79363      -10.86039
H          2.09321       48.56220      -13.36009
H         -0.82778       48.28614      -12.55344
H          0.08580       47.79323      -10.22693
H          2.13851       48.68125      -10.42607
H          1.02189       45.83214      -12.38610
H          0.76035       45.49692      -10.63324
H         -0.63541       45.95917      -11.67204
N         -0.50993       50.36833      -10.77214
C         -0.45279       51.67477      -10.12104
C          0.27304       51.50053       -8.79745
O         -0.06073       50.61351       -8.02318
C         -1.88043       52.30026       -9.96257
C         -2.33683       52.86109      -11.33879
C         -1.90275       53.41573       -8.89118
C         -3.71113       53.53847      -11.33719
H         -1.10608       49.65736      -10.32198
H          0.15475       52.39238      -10.71082
H         -2.58613       51.51755       -9.60606
H         -2.35685       52.03441      -12.07982
H         -1.59957       53.61982      -11.68701
H         -2.92657       53.80939       -8.73550
H         -1.59778       53.01966       -7.90008
H         -1.23484       54.24970       -9.17147
H         -4.49728       52.82981      -11.00692
H         -3.72167       54.43795      -10.68665
H         -3.94699       53.89003      -12.36397
N          1.26539       52.37610       -8.46968
C          2.06239       52.32089       -7.25283
C          1.61697       53.41254       -6.29694
O          0.67942       54.12927       -6.61015
C          3.55202       52.51568       -7.61887
C          4.05984       51.47673       -8.57398
O          3.57706       51.37342       -9.69095
O          5.08281       50.67988       -8.21156
H          1.44952       53.16432       -9.10570
H          1.92546       51.34679       -6.73369
H          4.17477       52.47543       -6.70218
H          3.69520       53.51524       -8.08511
N          2.22388       53.57636       -5.08794
C          1.83998       54.60798       -4.12870
C          2.05878       56.02718       -4.66724
O          1.09156       56.77442       -4.66071
C          2.55903       54.39803       -2.78180
C          2.10411       55.40034       -1.74561
C          0.75289       55.46401       -1.35417
C          3.02705       56.28461       -1.16335
C          0.33582       56.40025       -0.40485
C          2.60535       57.21692       -0.21052
C          1.26114       57.27596        0.16701
H          2.97427       52.91820       -4.82582
H          0.75413       54.47750       -3.92366
H          3.65569       54.45390       -2.92609
H          2.33091       53.37733       -2.40505
H          0.01900       54.79355       -1.78265
H          4.07147       56.25485       -1.44750
H         -0.70565       56.44609       -0.11304
H          3.32128       57.89520        0.23432
H          0.93622       57.99958        0.90299
N          3.25361       56.49080       -5.17063
C          3.43731       57.84139       -5.70699
C          2.66562       58.10537       -6.99872
O          2.78851       59.20323       -7.52517
C          4.95445       57.94651       -5.90377
C          5.33048       56.52200       -6.23932
C          4.48901       55.73661       -5.23905
H          3.12768       58.61581       -4.97114
H          5.29446       58.72313       -6.62312
H          5.41772       58.16808       -4.91518
H          4.95247       56.30521       -7.26457
H          6.41706       56.29437       -6.20165
H          4.37695       54.70719       -5.62379
H          4.96161       55.74108       -4.23276
N          1.81243       57.18865       -7.53308
C          0.97997       57.42622       -8.70098
C         -0.48333       57.55947       -8.29885
O         -1.20178       58.30922       -8.94442
C          1.11403       56.25927       -9.68245
C          2.56498       55.93959      -10.06115
C          2.62758       54.81592      -11.05442
O          1.61297       54.34298      -11.53850
O          3.81319       54.34607      -11.45676
H          1.72125       56.27251       -7.09212
H          1.28403       58.36083       -9.22311
H          0.52118       56.49249      -10.59543
H          0.69417       55.35058       -9.20892
H          3.12785       55.64058       -9.15207
H          3.05391       56.83263      -10.50578
N         -1.00114       56.85840       -7.24887
C         -2.38509       56.94969       -6.84694
H         -3.04155       56.59820       -7.66945
H         -2.55732       56.30520       -5.95654
H         -2.63444       57.99680       -6.57718
H         -0.40548       56.23814       -6.69539
Ca         3.77683       53.20542      -13.38930
O          1.97984       50.72610      -14.87416
H          2.92106       50.54270      -15.11373
H          1.46942       50.61024      -15.71303
O          0.17140       52.99050      -14.36055
H          0.40818       53.29469      -13.45082
H         -0.76420       53.28725      -14.48218

Ca 1.0



