%chk=holoCaM-CaMKII.loop3.water2.frame293.chk
%nprocshared=20
%mem=10GB
%nosave
#b3lyp/svp scf=(tight,noincore,xqc) Test 
#IOP(5/87=12) Density=Current Pop=(MK,readradii) iop(6/33=2) iop(6/42=6)

holoCaM-CaMKII.loop3.water2.frame293 

   0  1 
C         41.22873       39.70441       91.17488
C         40.56198       40.50753       92.25080
O         41.25175       41.19438       92.99004
H         41.94841       38.99408       91.63022
H         40.48763       39.12951       90.57981
H         41.77014       40.39055       90.48993
N         39.20789       40.49533       92.37954
C         38.50759       41.31042       93.36076
C         38.82479       40.82895       94.77191
O         38.53945       39.68201       95.08789
C         36.99693       41.26212       93.07368
C         36.20457       42.26333       93.85457
O         36.78892       43.11611       94.71830
O         35.00782       42.33671       93.65795
H         38.65657       39.92568       91.71787
H         38.83094       42.36628       93.21329
H         36.60193       40.23909       93.26002
H         36.83426       41.50712       92.00047
N         39.42312       41.66153       95.66994
C         39.80309       41.25642       97.01974
C         38.67818       41.54716       97.99488
O         38.14841       40.61277       98.58017
C         41.10966       41.95662       97.46080
C         42.30824       41.53890       96.59754
C         43.61425       42.14172       97.13347
C         44.82651       41.58426       96.37459
N         46.07829       42.07994       96.94633
H         39.62582       42.62101       95.37325
H         39.99235       40.15924       97.04116
H         41.31973       41.66106       98.51225
H         40.99981       43.06284       97.43046
H         42.15686       41.85099       95.54099
H         42.38882       40.43123       96.63684
H         43.72106       41.86857       98.20592
H         43.58660       43.25129       97.05001
H         44.76598       41.86779       95.30032
H         44.81913       40.47338       96.44594
H         46.88191       41.65033       96.43338
H         46.13100       43.12014       96.85648
H         46.14429       41.80827       97.95482
N         38.26187       42.82455       98.22332
C         37.17596       43.16695       99.14865
C         35.82221       42.57711       98.74959
O         34.89812       42.68041       99.54481
C         37.05127       44.70293       99.34525
C         36.73696       45.44722       98.07341
O         35.72955       46.12533       97.97875
O         37.62389       45.38857       97.06604
H         38.78212       43.56848       97.74704
H         37.44367       42.73613      100.13893
H         38.01211       45.09518       99.74244
H         36.26541       44.91227      100.10452
N         35.62003       41.93956       97.55987
C         34.36042       41.31483       97.19439
C         33.23248       42.31307       97.11626
O         32.23878       42.14265       97.80786
H         36.38543       41.86410       96.87918
H         34.12032       40.51348       97.92719
H         34.46989       40.83917       96.19525
N         33.32226       43.37855       96.27458
C         32.26733       44.37259       96.09935
C         31.78087       44.41869       94.65473
O         30.99598       45.29719       94.32757
C         32.77175       45.75135       96.57640
C         33.80899       46.39856       95.68236
N         33.60032       47.64029       95.18590
O         34.85012       45.81694       95.42133
H         34.18738       43.48702       95.72937
H         31.39391       44.12794       96.74272
H         33.18208       45.63242       97.60197
H         31.89838       46.43436       96.65650
H         32.73755       48.16084       95.40041
H         34.31297       48.09499       94.59845
N         32.17778       43.48376       93.74228
C         31.77534       43.48884       92.34998
C         32.65963       44.34138       91.45551
O         32.37652       44.35800       90.26623
H         32.71256       42.66795       94.05924
H         30.70564       43.77955       92.26111
H         31.85984       42.45048       91.96100
N         33.73575       45.06101       91.91381
C         34.57299       45.87139       91.02233
C         36.04386       45.48006       91.09535
O         36.44957       44.75620       91.99235
C         34.46546       47.37466       91.36356
C         33.07615       47.94633       91.21353
C         32.80846       48.89720       90.21424
C         32.04181       47.56291       92.08043
C         31.52692       49.43834       90.07751
C         30.76165       48.10298       91.94511
C         30.49907       49.04278       90.93952
O         29.26870       49.57415       90.79586
H         33.96231       45.05696       92.91836
H         34.25220       45.73329       89.96714
H         35.15028       47.92829       90.68483
H         34.81713       47.55382       92.39818
H         33.58982       49.21897       89.53704
H         32.22829       46.85568       92.86944
H         31.33434       50.16721       89.30087
H         29.97799       47.79292       92.62499
H         28.53211       49.32714       91.37304
N         36.90037       45.95407       90.14090
C         38.34612       45.74377       90.12878
C         39.01461       47.10592       89.95095
O         38.67902       47.80377       89.00361
C         38.75955       44.79018       88.96633
C         38.00062       43.44001       89.06875
C         40.28822       44.55540       88.99876
C         38.28106       42.48741       87.90305
H         36.49715       46.49046       89.35719
H         38.68150       45.26256       91.07450
H         38.48921       45.26964       87.99922
H         36.90789       43.63692       89.05679
H         38.25096       42.93003       90.02535
H         40.84344       45.51151       88.92271
H         40.58271       44.04923       89.94375
H         40.62701       43.93759       88.14470
H         37.65760       41.57561       88.01401
H         38.02591       42.97576       86.93842
H         39.34035       42.16216       87.88311
N         40.00695       47.52300       90.78623
C         40.71101       48.79578       90.63665
C         42.13606       48.54835       90.16626
O         42.49710       47.40641       89.94335
C         40.66019       49.56563       91.96477
O         39.32609       49.82819       92.29884
H         40.32302       46.89084       91.52997
H         40.23292       49.42575       89.85493
H         41.19836       50.53270       91.86273
H         41.13856       48.95732       92.76534
H         39.34629       50.32744       93.15623
N         42.98817       49.58715       89.93421
C         44.32328       49.42402       89.35793
C         45.22193       48.52637       90.18885
O         45.75140       47.56781       89.64351
C         44.98886       50.79003       89.16778
H         42.65340       50.54308       90.12638
H         44.21875       48.97335       88.34507
H         45.98260       50.66478       88.68633
H         44.36066       51.42298       88.50499
H         45.11983       51.30875       90.14083
N         45.43704       48.76621       91.51287
C         46.29863       47.92633       92.34542
C         45.88016       46.46970       92.28600
O         46.73983       45.60434       92.19674
C         46.27082       48.40629       93.80159
H         44.94771       49.56366       91.94906
H         47.35029       48.00877       91.99185
H         46.95529       47.78572       94.42063
H         46.61362       49.46114       93.86135
H         45.24556       48.33573       94.22452
N         44.56224       46.13587       92.30058
C         44.07465       44.76088       92.24877
C         44.56038       44.07605       90.97942
O         45.19467       43.03436       91.07764
C         42.53076       44.71687       92.42562
C         42.16230       45.37322       93.77704
C         40.74061       45.25402       94.23334
O         39.70699       45.78774       93.55421
O         40.52912       44.78108       95.33626
H         43.88248       46.90762       92.33468
H         44.49471       44.20057       93.11522
H         42.21183       43.65247       92.43453
H         42.01308       45.23119       91.58983
H         42.38213       46.45696       93.75702
H         42.79830       44.91209       94.56571
N         44.37360       44.64409       89.75778
C         44.92171       44.07865       88.54354
H         46.02691       43.99142       88.63246
H         44.48236       43.07868       88.35126
H         44.69820       44.74469       87.68201
H         43.87223       45.53372       89.68682
Ca        37.90983       45.95591       94.91053
O         39.60299       48.07433       96.26649
H         39.73501       48.47961       95.37263
H         38.64576       48.22771       96.46938
O         37.10504       48.35060       93.48342
H         37.40152       47.96441       92.62078
H         36.51799       49.10657       93.23147

Ca 1.0



