%chk=holoCaM.loop3.water2.frame4.chk
%nprocshared=20
%mem=10GB
%nosave
#b3lyp/svp scf=(tight,noincore,xqc) Test 
#IOP(5/87=12) Density=Current Pop=(MK,readradii) iop(6/33=2) iop(6/42=6)

holoCaM.loop3.water2.frame4 

   0  1 
C         55.46695       47.05777       52.50517
C         55.25943       47.24817       51.03107
O         54.42760       48.05289       50.63814
H         56.51732       47.30082       52.76897
H         54.78614       47.70886       53.09329
H         55.26300       45.99841       52.77322
N         55.98148       46.49951       50.15354
C         55.83252       46.55334       48.70722
C         55.24011       45.23622       48.25066
O         55.88853       44.44814       47.57824
C         57.19190       46.87623       48.04948
C         57.11561       46.77452       46.54474
O         56.27866       47.55512       45.83663
O         57.81029       45.95945       45.96306
H         56.65227       45.81435       50.53550
H         55.11372       47.34290       48.39733
H         57.95460       46.15633       48.41581
H         57.51210       47.89955       48.34445
N         53.95532       44.95827       48.58412
C         53.25809       43.75185       48.14902
C         52.98255       43.75098       46.63991
O         52.43598       42.75528       46.17213
C         51.94277       43.61229       48.95149
C         52.23131       43.43489       50.45901
C         50.94473       43.45237       51.29439
C         51.21629       43.33574       52.80687
N         51.74689       42.02375       53.18306
H         53.45377       45.64163       49.17168
H         53.88743       42.86637       48.39013
H         51.37094       42.72333       48.60444
H         51.31981       44.51793       48.77977
H         52.87324       44.26032       50.83183
H         52.78004       42.47990       50.59820
H         50.25557       42.64289       50.97160
H         50.44238       44.42944       51.12063
H         50.25598       43.49410       53.34507
H         51.92012       44.13585       53.12994
H         52.67912       41.85358       52.74512
H         51.86512       41.99201       54.22161
H         51.07571       41.27320       52.90011
N         53.32192       44.78765       45.80864
C         53.06970       44.79620       44.36769
C         54.35019       44.82790       43.52693
O         54.24091       44.81138       42.31273
C         52.11733       45.94786       43.97741
C         52.68864       47.32546       44.18847
O         52.84531       48.06847       43.23319
O         52.98759       47.76761       45.42394
H         53.78045       45.61970       46.20396
H         52.54602       43.85875       44.07377
H         51.17013       45.85571       44.55078
H         51.86287       45.83123       42.89986
N         55.59457       44.79096       44.09349
C         56.80244       44.61408       43.29870
C         57.24598       45.80250       42.46530
O         58.14471       45.59466       41.66105
H         55.68733       44.74531       45.11140
H         56.64508       43.73847       42.63281
H         57.65222       44.34949       43.96479
N         56.75739       47.07161       42.62309
C         57.24788       48.20110       41.82324
C         58.25803       49.08041       42.56289
O         58.72875       50.04074       41.97056
C         56.08399       49.02451       41.23084
C         55.27484       49.83055       42.22021
N         54.29542       50.64526       41.76591
O         55.50232       49.77352       43.41916
H         56.06462       47.25186       43.36228
H         57.80669       47.81221       40.94313
H         55.40557       48.34683       40.66847
H         56.51797       49.74584       40.50392
H         54.09823       50.71680       40.75678
H         53.74188       51.21632       42.41980
N         58.70987       48.76922       43.81203
C         59.82971       49.45480       44.43926
C         59.48840       50.71083       45.21491
O         60.41596       51.26082       45.79236
H         58.38382       47.90494       44.25949
H         60.61849       49.66364       43.68237
H         60.28118       48.75703       45.17758
N         58.22387       51.22172       45.31790
C         57.91594       52.38440       46.15810
C         56.87701       51.99191       47.23132
O         57.19111       50.74720       47.75167
C         57.40742       53.55940       45.29701
C         58.47579       54.04352       44.34966
C         58.76797       53.33935       43.17016
C         59.20087       55.20818       44.65076
C         59.77340       53.79050       42.30967
C         60.21183       55.65164       43.79618
C         60.50223       54.94357       42.62168
O         61.47744       55.36066       41.78985
H         57.44953       50.76758       44.81394
H         58.82469       52.72581       46.70124
H         57.14175       54.39940       45.96794
H         56.48303       53.29989       44.73668
H         58.21257       52.44743       42.91371
H         58.99675       55.76378       45.55784
H         59.98811       53.24139       41.40156
H         60.77003       56.54339       44.05126
H         62.00893       56.14785       41.97667
N         56.80092       52.93314       48.36111
C         55.59833       52.66787       49.18851
C         54.71293       53.89917       49.19485
O         55.07572       54.88911       49.81777
C         55.99958       52.26961       50.64909
C         56.93777       51.03452       50.66412
C         54.74306       52.00797       51.50784
C         57.48023       50.67570       52.04905
H         56.85078       53.92681       48.04537
H         55.00806       51.82344       48.75695
H         56.55802       53.12303       51.09436
H         57.83145       51.25553       50.04553
H         56.41197       50.15124       50.23891
H         54.08156       52.89636       51.52996
H         54.17138       51.14503       51.10751
H         55.00864       51.80571       52.56372
H         56.67395       50.36871       52.74355
H         58.18148       49.81947       51.95569
H         58.03330       51.53912       52.47660
N         53.55304       53.92478       48.48353
C         52.67531       55.08541       48.50274
C         51.93998       55.14926       49.83130
O         51.97232       54.18756       50.58492
C         51.66875       54.99776       47.33930
O         50.88370       56.15593       47.27417
H         53.31404       53.11753       47.88911
H         53.29587       55.99661       48.34865
H         51.01588       54.10513       47.47159
H         52.24419       54.89782       46.39081
H         50.33570       56.07423       46.45103
N         51.22749       56.25314       50.17611
C         50.35637       56.29104       51.34365
C         49.18493       55.34805       51.13297
O         48.82686       54.62211       52.04991
C         49.82848       57.70914       51.56805
H         51.27695       57.08309       49.56593
H         50.92306       56.01932       52.26373
H         50.68200       58.39900       51.74288
H         49.24667       58.06517       50.69251
H         49.17873       57.73007       52.47011
N         48.55805       55.29965       49.91777
C         47.39281       54.46817       49.62166
C         47.60550       52.96983       49.82209
O         46.62233       52.24635       49.73714
C         46.93511       54.71617       48.17662
H         48.91332       55.91511       49.17011
H         46.57944       54.78619       50.31008
H         46.00947       54.14620       47.94963
H         46.72579       55.79575       48.02035
H         47.73166       54.40337       47.46531
N         48.82439       52.42837       50.11130
C         49.02076       51.01915       50.43059
C         49.44318       50.89828       51.88544
O         48.76212       50.21162       52.63548
C         49.96859       50.32426       49.42251
C         51.38744       50.89818       49.29866
C         52.17418       50.13282       48.27167
O         52.40798       48.81736       48.44127
O         52.61065       50.69769       47.28241
H         49.64843       53.03805       50.14731
H         48.06200       50.46016       50.33784
H         49.48857       50.38303       48.42011
H         50.03874       49.24945       49.70241
H         51.92747       50.81361       50.25970
H         51.33197       51.96505       48.99737
N         50.51194       51.58247       52.37940
C         50.87937       51.53318       53.77700
H         51.76048       52.18509       53.95867
H         50.03626       51.90103       54.40103
H         51.13386       50.49320       54.06906
H         51.06693       52.18728       51.76319
Ca        55.64070       49.39154       46.88229
O         53.45708       52.41697       44.88738
H         52.69120       52.54322       44.27276
H         53.98272       53.25083       44.79934
O         50.97526       50.13065       44.72225
H         50.36799       50.11667       45.50414
H         50.67469       50.90688       44.18652

Ca 1.0



