%chk=holoCaM-CaMKII.loop1.water2.frame222.chk
%nprocshared=20
%mem=10GB
%nosave
#b3lyp/svp scf=(tight,noincore,xqc) Test 
#IOP(5/87=12) Density=Current Pop=(MK,readradii) iop(6/33=2) iop(6/42=6)

holoCaM-CaMKII.loop1.water2.frame222 

   0  1 
C         12.72761       45.35927       57.15833
C         11.33218       45.19709       57.66704
O         10.64105       44.29918       57.20594
H         13.28776       44.41788       57.34674
H         12.70431       45.56394       56.06969
H         13.25082       46.18795       57.67880
N         10.85865       45.99959       58.66048
C          9.56966       45.75359       59.27269
C          8.41305       46.03252       58.31062
O          8.18765       47.18031       57.95267
C          9.40768       46.58233       60.56481
C          8.25193       46.07248       61.35395
O          7.60864       44.98489       60.91570
O          7.92466       46.60417       62.39532
H         11.47376       46.72609       59.05768
H          9.58304       44.67800       59.57074
H          9.28317       47.66008       60.32431
H         10.30359       46.46020       61.21061
N          7.64745       45.00526       57.84849
C          6.53074       45.16946       56.92258
C          5.28528       45.70445       57.62625
O          4.83232       46.78031       57.25907
C          6.23486       43.82685       56.19999
C          7.40853       43.33628       55.31616
C          7.63882       44.24357       54.09304
C          8.80663       43.76672       53.22226
N          8.97939       44.65463       52.07057
H          7.93343       44.05423       58.10813
H          6.81128       45.90736       56.14530
H          5.33314       43.92356       55.55663
H          6.01819       43.04727       56.96121
H          7.16494       42.31655       54.94500
H          8.33777       43.25903       55.92038
H          7.87634       45.27626       54.41132
H          6.71017       44.25987       53.48110
H          8.61764       42.73073       52.86432
H          9.74087       43.76721       53.82745
H          8.11936       44.64170       51.47497
H          9.16472       45.63288       52.39282
H          9.79213       44.32956       51.49948
N          4.64328       44.99258       58.60422
C          3.37193       45.43155       59.19628
C          3.50918       46.54682       60.24395
O          2.48232       46.97667       60.75225
C          2.49051       44.23688       59.67177
C          3.03794       43.35976       60.75699
O          2.36603       42.44898       61.20974
O          4.27641       43.53128       61.20282
H          5.01647       44.06548       58.84987
H          2.75225       45.86443       58.37821
H          2.28070       43.58079       58.79929
H          1.52011       44.64499       60.02795
N          4.70500       47.13235       60.55639
C          4.80081       48.32877       61.39111
C          4.59197       48.12991       62.88280
O          4.61722       49.12679       63.59177
H          5.56503       46.81460       60.08946
H          4.07948       49.08638       61.01189
H          5.81827       48.76211       61.27871
N          4.42339       46.90260       63.45153
C          4.26940       46.70419       64.89959
C          5.53903       47.02136       65.71997
O          5.50301       46.84309       66.92970
C          3.80000       45.25421       65.17209
C          4.81240       44.19872       64.83534
O          5.94021       44.50094       64.48562
O          4.47490       42.90117       64.94331
H          4.37630       46.08023       62.83291
H          3.44220       47.35913       65.25367
H          2.88372       45.06891       64.56987
H          3.53171       45.13370       66.24345
N          6.68894       47.48476       65.14469
C          7.92041       47.76284       65.87013
C          8.62085       46.49752       66.32474
O          8.88934       46.36723       67.50486
H          6.70712       47.68998       64.14310
H          7.71496       48.45369       66.71759
H          8.62490       48.27956       65.18243
N          8.98176       45.55143       65.40779
C          9.68577       44.28301       65.66141
C          9.95995       43.56162       64.33560
O          9.10146       43.54991       63.46350
C          8.92241       43.29381       66.59378
C          9.25000       43.40085       68.08929
O          7.54046       43.33612       66.37502
H          8.74205       45.76520       64.43432
H         10.68001       44.48809       66.11363
H          9.27803       42.26545       66.35399
H          7.19437       44.16565       66.79597
H          8.75030       42.56765       68.62742
H         10.34636       43.29877       68.23898
H          8.90406       44.33366       68.55652
N         11.13037       42.87266       64.16071
C         11.48758       42.15947       62.93390
C         11.58332       40.66514       63.23634
O         12.41987       40.27003       64.03699
C         12.85000       42.68810       62.38771
C         12.83321       44.22954       62.21508
C         13.21282       41.98860       61.06050
C         14.21236       44.81127       61.89043
H         11.80560       42.84590       64.93993
H         10.70996       42.32792       62.15586
H         13.62954       42.44480       63.14456
H         12.52305       44.70339       63.17051
H         12.10256       44.52355       61.43060
H         13.23577       40.88742       61.18209
H         12.47237       42.24451       60.27352
H         14.22163       42.28137       60.70950
H         14.93838       44.53561       62.68632
H         14.59094       44.45721       60.91163
H         14.14670       45.91839       61.84673
N         10.73792       39.77805       62.63806
C         10.76127       38.33662       62.89882
C         11.89076       37.65275       62.13234
O         12.58020       38.30131       61.35786
C          9.39363       37.69290       62.52035
C          8.25338       38.28508       63.34413
O          9.12177       37.89265       61.16044
H         10.01575       40.15150       62.01161
H         10.90722       38.16782       63.98900
H          9.43627       36.60207       62.73577
H          8.35328       37.31036       60.92303
H          8.15756       39.35909       63.10663
H          7.29562       37.78579       63.08452
H          8.44165       38.15345       64.42986
N         12.10474       36.30946       62.27908
C         13.08766       35.55006       61.49616
C         12.72097       35.46466       60.00740
O         13.50069       34.91099       59.24497
C         13.23560       34.10814       62.04836
C         13.76750       34.08322       63.48387
O         11.99642       33.44195       62.00162
H         11.53629       35.80757       62.97659
H         14.07651       36.05285       61.58725
H         13.99708       33.57087       61.43107
H         12.07955       32.69314       61.35535
H         13.88767       33.03029       63.81676
H         14.75894       34.58161       63.53281
H         13.07463       34.59169       64.18520
N         11.56005       35.98814       59.52499
C         11.13422       35.95713       58.13241
C         11.24196       37.35787       57.56121
O         11.87631       37.52028       56.52728
C          9.70743       35.37221       58.05683
C          9.74851       33.86260       58.35551
C          8.36198       33.20789       58.34895
C          8.50528       31.67779       58.42299
N          7.20194       31.01691       58.46231
H         10.91758       36.45118       60.17269
H         11.79954       35.31847       57.50808
H          9.30249       35.50354       57.02980
H          9.03528       35.90610       58.76555
H         10.22302       33.67012       59.34299
H         10.37286       33.38919       57.56574
H          7.82364       33.46543       57.41132
H          7.77481       33.58566       59.21522
H          9.08789       31.38982       59.32614
H          9.06179       31.32742       57.52396
H          6.70018       31.27112       59.34368
H          6.62808       31.29254       57.63271
H          7.34650       29.98098       58.44261
N         10.74386       38.43568       58.23104
C         10.96713       39.81604       57.80467
C         12.45660       40.18480       57.81243
O         12.77719       41.27012       57.34781
C         10.20185       40.80480       58.72267
C          8.67992       40.56665       58.71376
C          7.96139       41.48047       59.66582
O          8.27489       41.48633       60.97331
O          7.04798       42.18272       59.27090
H         10.22639       38.26663       59.09655
H         10.58215       39.92512       56.76643
H         10.39533       41.84912       58.39285
H         10.58985       40.69237       59.75795
H          8.44726       39.53319       59.03222
H          8.28883       40.70887       57.68223
N         13.41869       39.35164       58.31907
C         14.83575       39.65307       58.30754
H         15.21920       39.65753       59.34935
H         15.37022       38.86291       57.73728
H         15.06082       40.63350       57.84034
H         13.16492       38.45203       58.74503
Ca         6.27451       43.68414       62.03652
O          5.54930       40.43363       61.64814
H          5.29600       39.67027       62.22469
H          4.68727       40.83897       61.38206
O          6.91628       41.10642       64.26598
H          6.42301       40.25235       64.33562
H          6.64854       41.58201       65.08403

Ca 1.0



