%chk=holoCaM.loop4.water3.frame54.chk
%nprocshared=20
%mem=10GB
%nosave
#b3lyp/svp scf=(tight,noincore,xqc) Test 
#IOP(5/87=12) Density=Current Pop=(MK,readradii) iop(6/33=2) iop(6/42=6)

holoCaM.loop4.water3.frame54 

   -3  1 
C        103.13330        9.50721       31.17425
C        102.61449       10.88113       31.48694
O        101.63659       10.99272       32.20897
H        104.17178        9.41555       31.56150
H        102.51490        8.72529       31.66770
H        103.13555        9.33312       30.07999
N        103.27706       11.98135       31.02513
C        102.96884       13.34786       31.44015
C        102.91560       14.30055       30.24946
O        103.90733       14.40670       29.54243
C        104.06580       13.74323       32.45002
C        104.00572       15.12041       33.06221
O        102.89114       15.62623       33.62595
O        105.03948       15.76214       33.15253
H        104.12830       11.82938       30.46179
H        102.00653       13.36639       31.97733
H        105.06477       13.61770       31.97589
H        104.01374       13.01569       33.28535
N        101.80125       15.05818       29.99648
C        101.71639       16.06683       28.93826
C        101.52051       17.48285       29.49546
O        101.61279       18.41358       28.70670
C        100.57074       15.74890       27.91691
C         99.16000       15.77792       28.57662
C        100.83286       14.41194       27.20399
C         98.00513       15.70199       27.57213
H        100.98449       14.94076       30.59738
H        102.67721       16.08985       28.37945
H        100.59809       16.54631       27.14030
H         99.02753       16.73558       29.12214
H         99.05545       14.94922       29.30656
H        100.78751       13.56505       27.92057
H        100.09097       14.23697       26.39796
H        101.83327       14.42716       26.72315
H         97.03845       15.77659       28.11516
H         98.06535       16.54692       26.85283
H         98.00205       14.74405       27.01552
N        101.17706       17.73006       30.79858
C        100.85655       19.06602       31.30586
C        101.63452       19.44431       32.57653
O        101.41072       20.53481       33.08330
C         99.32301       19.18382       31.46081
C         98.71076       18.15051       32.35892
O         99.02402       18.12070       33.65983
O         97.90353       17.34866       31.91606
H        101.03110       16.94387       31.44313
H        101.12285       19.84160       30.55471
H         98.87475       19.06824       30.44840
H         99.05211       20.19671       31.82878
N        102.60972       18.64516       33.10459
C        103.48324       19.04194       34.20989
C        102.84188       19.20808       35.58585
O        103.55077       19.64239       36.48294
H        102.83431       17.76596       32.62809
H        103.96325       20.00541       33.93063
H        104.29438       18.28959       34.31638
N        101.53385       18.92150       35.84167
C        100.87175       19.23142       37.11799
C        101.29257       18.37960       38.32685
O        100.71464       18.57967       39.38738
C         99.33556       19.13891       36.95605
C         98.82355       17.72386       36.89627
O         99.20994       16.95223       36.03532
O         97.95108       17.29401       37.82759
H        100.96353       18.57225       35.06433
H        101.08284       20.30059       37.34436
H         99.02199       19.70511       36.05255
H         98.85885       19.63221       37.83202
N        102.25719       17.41927       38.26915
C        102.60089       16.58127       39.41046
C        101.65241       15.41003       39.65104
O        101.91325       14.67195       40.59193
H        102.82067       17.31432       37.42011
H        102.71030       17.21182       40.32045
H        103.59172       16.11626       39.21674
N        100.57311       15.13518       38.85520
C         99.77870       13.90499       38.98306
C         99.46626       13.28641       37.62409
O         99.76163       13.88201       36.59704
C         98.45112       14.15438       39.73199
C         98.65117       14.48428       41.21444
C         97.32117       14.50227       41.92751
N         96.35909       15.38935       41.58400
O         97.10552       13.69329       42.81854
H        100.35013       15.77751       38.08467
H        100.35878       13.13686       39.54084
H         97.84940       13.22165       39.71205
H         97.86556       14.94461       39.21719
H         99.16660       15.45924       41.33789
H         99.28263       13.68944       41.67308
H         96.51959       16.07944       40.83690
H         95.44797       15.38292       42.06612
N         98.83752       12.07392       37.56181
C         98.46285       11.40100       36.32333
C         96.94623       11.29709       36.23448
O         96.29528       10.99586       37.22686
C         99.17727       10.02250       36.19793
C         98.72308        8.98966       37.24304
C         98.99750        9.43819       34.78711
H         98.60358       11.59806       38.44562
H         98.81237       12.00261       35.45580
H        100.26773       10.19714       36.33511
H         98.89881        9.35514       38.27396
H         97.64617        8.74662       37.12106
H         99.30035        8.04843       37.11853
H         99.38683       10.14919       34.02835
H         99.56799        8.49086       34.68295
H         97.92898        9.22950       34.57382
N         96.32742       11.52198       35.04503
C         94.88621       11.49331       34.82858
C         94.53849       10.31989       33.92129
O         95.43727        9.62590       33.47932
C         94.49686       12.85294       34.19293
C         93.02480       13.05902       33.94750
N         92.14782       13.08406       34.97646
O         92.62176       13.22658       32.80574
H         96.91967       11.70343       34.22627
H         94.35218       11.35487       35.79392
H         95.03790       12.95098       33.22513
H         94.84170       13.67393       34.85796
H         92.47023       12.95979       35.94656
H         91.14390       13.23754       34.80113
N         93.24654       10.00587       33.63481
C         92.85791        8.90860       32.74122
C         93.09322        9.21068       31.25643
O         92.87720        8.31251       30.45475
C         91.39258        8.49418       33.01277
C         90.43537        9.66086       32.95058
C         90.17717       10.33525       31.74750
C         89.81995       10.10728       34.13306
C         89.33810       11.45229       31.73345
C         88.98399       11.22317       34.11717
C         88.74534       11.90444       32.92097
O         87.95042       12.99211       32.92554
H         92.51635       10.53692       34.12486
H         93.47230        8.01437       32.99408
H         91.37933        8.07165       34.04211
H         91.06949        7.67839       32.33011
H         90.62792       10.00762       30.82156
H         90.00730        9.60628       35.07526
H         89.15738       11.97046       30.80059
H         88.53299       11.56426       35.04000
H         87.77454       13.50168       32.12223
N         93.56751       10.41308       30.81181
C         93.93808       10.66615       29.41671
C         95.44577       10.53790       29.24641
O         95.95390       10.82152       28.17012
C         93.48798       12.08297       28.99410
C         91.96669       12.24968       29.02897
C         91.56077       13.62030       28.56716
O         91.83478       13.99737       27.43842
O         90.87751       14.43552       29.39292
H         93.80168       11.14553       31.49622
H         93.47752        9.92432       28.72857
H         93.83181       12.27222       27.95267
H         93.96204       12.84153       29.65817
H         91.60815       12.09854       30.06558
H         91.49223       11.49454       28.36580
N         96.22222       10.11146       30.27867
C         97.66746       10.07221       30.27333
C         98.13944        8.65200       30.52622
O         98.87659        8.12121       29.70755
C         98.15322       11.04512       31.35444
C         97.68148       12.47734       31.04413
C         98.21804       13.42211       32.05964
O         97.59818       13.70276       33.06952
O         99.48852       13.79299       31.92646
H         95.78185        9.84121       31.15930
H         98.08282       10.41410       29.29899
H         99.25932       11.01761       31.40129
H         97.75229       10.73860       32.34263
H         96.57508       12.56288       30.99792
H         98.08547       12.77495       30.05125
N         97.72946        7.95861       31.62529
C         98.11303        6.58736       31.87174
H         99.21314        6.51567       31.99357
H         97.62378        6.22191       32.80095
H         97.78223        5.94529       31.02761
H         97.10378        8.40127       32.30555
Ca       100.76674       15.00560       33.28459
O        102.35014       14.98254       36.26715
H        102.29647       15.89497       35.88752
H        103.31814       14.79813       36.35070
O        101.58903       12.53483       35.00441
H        100.98091       12.39329       34.23715
H        102.43777       12.10128       34.74310
O         96.78741       15.73696       34.82955
H         96.69703       15.76192       35.81478
H         96.48391       16.62864       34.52542

Ca 1.0



