%chk=holoCaM-CaMKII.loop4.water2.frame175.chk
%nprocshared=20
%mem=10GB
%nosave
#b3lyp/svp scf=(tight,noincore,xqc) Test 
#IOP(5/87=12) Density=Current Pop=(MK,readradii) iop(6/33=2) iop(6/42=6)

holoCaM-CaMKII.loop4.water2.frame175 

   -3  1 
C         -9.25119       51.62673       19.18544
C        -10.03082       50.60550       19.96491
O        -10.37580       49.57298       19.41324
H         -8.30582       51.17049       18.82256
H         -9.84690       51.97898       18.31925
H         -8.98839       52.50514       19.81394
N        -10.31724       50.82185       21.27547
C        -10.98781       49.85143       22.13444
C        -12.42986       49.61059       21.71289
O        -13.15598       50.58111       21.54275
C        -10.95269       50.36811       23.57974
C        -11.32877       49.32327       24.57644
O        -11.19759       49.57641       25.75705
O        -11.60630       48.06335       24.19646
H         -9.98529       51.70362       21.69831
H        -10.39965       48.90644       22.10660
H        -11.58929       51.27036       23.70017
H         -9.90113       50.64481       23.82110
N        -12.92530       48.34064       21.57622
C        -14.28497       48.04664       21.12706
C        -15.16391       47.43938       22.22833
O        -16.37332       47.54291       22.08895
C        -14.22849       47.13957       19.86124
C        -13.30123       47.71946       18.75905
C        -15.62156       46.82623       19.28593
C        -13.71945       49.08693       18.21086
H        -12.30710       47.54678       21.78120
H        -14.78617       49.00199       20.85912
H        -13.77903       46.16742       20.16491
H        -13.25423       46.99968       17.91356
H        -12.27049       47.80745       19.15967
H        -15.52608       46.17582       18.39141
H        -16.23790       46.26580       20.01696
H        -16.16006       47.75500       19.00698
H        -14.72371       49.04129       17.74435
H        -13.71915       49.85672       19.00757
H        -12.99200       49.40556       17.43536
N        -14.66239       46.86369       23.36633
C        -15.52993       46.43023       24.47160
C        -15.38897       47.34926       25.67956
O        -16.10844       47.15416       26.65261
C        -15.30285       44.94671       24.84552
C        -13.97368       44.61532       25.47480
O        -13.75194       43.35615       25.89604
O        -13.11170       45.46347       25.64211
H        -13.64645       46.77829       23.48341
H        -16.59485       46.50621       24.16468
H        -15.44349       44.31312       23.94338
H        -16.08493       44.65829       25.58261
N        -14.51840       48.39579       25.67867
C        -14.40475       49.36515       26.74701
C        -13.96697       48.77149       28.06517
O        -14.67051       48.96907       29.04379
H        -13.93098       48.56978       24.85483
H        -15.37910       49.88736       26.86561
H        -13.65505       50.13020       26.45375
N        -12.79517       48.07676       28.17817
C        -12.26733       47.61731       29.46792
C        -10.91161       48.24400       29.80743
O        -10.44645       48.03728       30.92122
C        -12.22069       46.07443       29.53617
C        -11.29836       45.39349       28.55939
O        -11.19108       44.05202       28.58104
O        -10.64504       46.02880       27.75210
H        -12.25695       47.88931       27.32199
H        -12.95377       47.94038       30.27981
H        -13.24680       45.68287       29.36982
H        -11.90437       45.77970       30.56030
N        -10.22652       49.02390       28.92294
C         -8.98238       49.71200       29.21934
C         -7.82529       49.24938       28.35676
O         -6.81142       49.93223       28.36436
H        -10.60223       49.17835       27.98528
H         -8.68254       49.61437       30.28465
H         -9.15692       50.79267       29.02255
N         -7.85767       48.07837       27.64850
C         -6.72943       47.60294       26.84584
C         -7.20071       47.16423       25.44448
O         -8.18354       48.03641       25.00933
C         -6.04970       46.42666       27.56391
C         -5.44896       46.87190       28.90414
C         -4.72351       45.74051       29.57667
N         -5.38788       44.63083       29.97375
O         -3.52080       45.82959       29.77256
H         -8.68088       47.46927       27.72235
H         -5.98536       48.41938       26.71187
H         -5.22436       46.02904       26.93874
H         -6.78984       45.61343       27.72321
H         -6.24126       47.24534       29.58759
H         -4.73356       47.70191       28.70966
H         -6.40415       44.54270       29.82858
H         -4.88443       43.85951       30.43553
N         -6.08726       47.17497       24.48188
C         -6.47363       46.90944       23.07710
C         -6.01890       45.52113       22.64410
O         -4.82645       45.25098       22.60388
C         -5.90147       48.04893       22.18604
C         -6.03816       47.77748       20.67970
C         -6.62089       49.37182       22.51213
H         -5.27741       46.59115       24.78945
H         -7.57944       46.94326       22.95385
H         -4.81594       48.15981       22.40238
H         -5.46501       46.87388       20.39177
H         -7.10007       47.65258       20.39069
H         -5.61117       48.62599       20.10248
H         -7.70624       49.28816       22.27692
H         -6.51385       49.63314       23.58490
H         -6.20001       50.20564       21.91238
N         -6.95354       44.59132       22.29831
C         -6.64610       43.24200       21.82480
C         -5.93641       43.32080       20.46911
O         -5.89716       44.38677       19.87197
C         -8.01306       42.49180       21.70104
C         -8.07584       41.00953       21.41049
N         -9.28588       40.42970       21.22783
O         -7.07392       40.31935       21.36054
H         -7.94462       44.86061       22.38837
H         -6.00287       42.74530       22.58378
H         -8.59685       43.01079       20.91253
H         -8.55806       42.61342       22.66350
H        -10.15023       40.98976       21.27822
H         -9.36252       39.42119       21.02962
N         -5.36392       42.22160       19.91153
C         -4.88249       42.16064       18.53399
C         -6.05288       42.34238       17.57723
O         -5.91509       43.07334       16.60777
C         -4.16979       40.80816       18.31210
C         -3.60400       40.58895       16.92478
C         -2.72222       41.51460       16.33630
C         -3.92424       39.41359       16.22265
C         -2.17657       41.26658       15.07124
C         -3.36623       39.16170       14.96638
C         -2.48891       40.08760       14.38633
O         -1.93528       39.85121       13.17952
H         -5.28587       41.37387       20.48214
H         -4.13002       42.96196       18.36286
H         -4.86347       39.97844       18.57303
H         -3.31638       40.76805       19.02358
H         -2.45065       42.42624       16.85145
H         -4.58862       38.67683       16.65646
H         -1.49992       41.98628       14.62726
H         -3.61028       38.24205       14.44939
H         -2.10782       39.03711       12.68473
N         -7.25531       41.73730       17.81766
C         -8.43031       41.92160       16.96122
C         -8.96468       43.35955       16.96917
O         -9.86648       43.64226       16.19139
C         -9.59381       40.99362       17.38524
C         -9.22190       39.50271       17.40322
C        -10.43165       38.66064       17.69162
O        -10.47285       37.88793       18.79363
O        -11.38015       38.66484       16.92268
H         -7.32788       41.12648       18.64170
H         -8.13400       41.65353       15.92275
H        -10.42396       41.13719       16.65719
H         -9.96201       41.28622       18.39459
H         -8.46172       39.30809       18.18772
H         -8.80136       39.19976       16.42135
N         -8.48304       44.30974       17.82168
C         -8.96730       45.68493       17.88653
C         -7.90188       46.67726       17.43227
O         -8.22376       47.85099       17.30733
C         -9.38946       46.00395       19.33515
C        -10.55091       45.12527       19.82179
C        -10.86273       45.35066       21.27728
O        -11.77330       44.73039       21.80155
O        -10.14525       46.21877       22.01757
H         -7.74741       44.05252       18.48054
H         -9.83487       45.82433       17.20465
H         -9.69542       47.06828       19.42030
H         -8.50847       45.83884       19.99358
H        -10.29827       44.05329       19.69475
H        -11.45202       45.34893       19.21273
N         -6.62206       46.29656       17.15426
C         -5.62594       47.21944       16.65934
H         -4.65535       46.69168       16.53442
H         -5.94106       47.61168       15.66922
H         -5.48744       48.05847       17.37205
H         -6.32423       45.32754       17.29374
Ca       -10.03782       46.74870       24.99806
O        -11.19014       42.84684       24.44055
H        -11.23995       42.93331       25.42562
H        -11.35879       41.88647       24.26974
O         -8.65662       43.90976       25.99937
H         -8.69771       44.51040       26.78417
H         -8.96408       43.03502       26.34621

Ca 1.0



