%chk=holoCaM.loop4.water3.frame256.chk
%nprocshared=20
%mem=10GB
%nosave
#b3lyp/svp scf=(tight,noincore,xqc) Test 
#IOP(5/87=12) Density=Current Pop=(MK,readradii) iop(6/33=2) iop(6/42=6)

holoCaM.loop4.water3.frame256 

   -3  1 
C         37.03949      -15.07047       90.39545
C         35.96778      -14.30526       89.68008
O         35.93914      -14.33846       88.45838
H         37.64948      -14.38759       91.01807
H         36.56447      -15.83933       91.04308
H         37.69877      -15.59470       89.66905
N         35.00495      -13.64589       90.38978
C         33.82554      -13.06563       89.76139
C         33.52051      -11.64593       90.25884
O         33.54765      -11.40353       91.45658
C         32.63872      -13.99770       90.07134
C         31.44912      -13.76868       89.18601
O         30.32911      -14.48354       89.39296
O         31.51240      -13.01093       88.23190
H         35.03999      -13.68636       91.41992
H         33.95204      -13.06310       88.65655
H         32.35589      -13.89534       91.14071
H         32.93796      -15.05313       89.89034
N         33.09851      -10.69789       89.37452
C         32.65733       -9.33598       89.70298
C         31.15534       -9.19133       89.43212
O         30.43510       -8.70438       90.29183
C         33.44958       -8.30301       88.82511
C         34.94560       -8.28586       89.22403
C         32.84898       -6.87977       88.90948
C         35.82290       -7.44345       88.28636
H         33.04211      -10.98403       88.39215
H         32.82953       -9.09402       90.77579
H         33.36346       -8.61708       87.76373
H         35.33674       -9.32112       89.20737
H         35.05386       -7.90789       90.26348
H         32.89923       -6.48873       89.94620
H         33.36990       -6.18011       88.22631
H         31.79187       -6.86971       88.57092
H         36.88468       -7.52446       88.59910
H         35.73546       -7.80382       87.23951
H         35.55302       -6.36913       88.31985
N         30.64665       -9.53532       88.21923
C         29.30822       -9.18754       87.72071
C         28.32341      -10.36168       87.58117
O         27.19712      -10.12028       87.16688
C         29.46042       -8.51427       86.33070
C         30.00785       -9.47333       85.28931
O         30.50348      -10.66885       85.67717
O         30.00060       -9.16985       84.10769
H         31.30872       -9.98665       87.59023
H         28.83154       -8.46400       88.41822
H         30.10628       -7.61150       86.39066
H         28.45171       -8.18378       85.99964
N         28.64758      -11.63705       87.91997
C         27.70562      -12.75061       87.87704
C         27.27406      -13.26189       86.50291
O         26.44641      -14.16279       86.50266
H         29.56632      -11.80508       88.33114
H         26.79828      -12.45901       88.45153
H         28.15505      -13.61657       88.40295
N         27.73545      -12.77727       85.30652
C         27.17657      -13.23955       84.02684
C         27.37399      -14.72383       83.71022
O         26.73279      -15.17767       82.77073
C         27.60709      -12.37113       82.80638
C         28.97974      -12.59818       82.20130
O         29.86870      -13.44399       82.74250
O         29.28426      -12.00156       81.18177
H         28.40016      -11.99824       85.30973
H         26.07960      -13.07775       84.12646
H         27.47781      -11.29645       83.05658
H         26.89688      -12.60933       81.98515
N         28.23757      -15.53576       84.39329
C         28.40181      -16.95263       84.07048
C         29.76635      -17.30501       83.50627
O         29.93576      -18.44259       83.09775
H         28.80206      -15.14080       85.15742
H         27.66740      -17.26465       83.29791
H         28.20244      -17.56767       84.97402
N         30.78562      -16.39972       83.44529
C         32.07659      -16.70086       82.82518
C         33.15716      -15.70606       83.24994
O         32.88743      -14.76370       83.97567
C         31.91986      -16.81644       81.28058
C         31.17287      -15.62982       80.63400
C         30.99686      -15.78345       79.13777
N         30.25945      -14.88136       78.44850
O         31.50315      -16.72398       78.54200
H         30.64269      -15.47418       83.85727
H         32.44807      -17.67150       83.22047
H         31.32962      -17.73022       81.05554
H         32.91219      -16.94873       80.79995
H         31.70306      -14.67579       80.83937
H         30.15491      -15.57720       81.07612
H         29.80678      -14.09146       78.93135
H         30.12462      -14.98195       77.43083
N         34.44425      -15.91367       82.84830
C         35.57687      -15.09576       83.26376
C         35.98244      -14.23555       82.09042
O         36.28399      -14.76276       81.02974
C         36.73292      -16.01842       83.76757
C         38.06982      -15.27391       83.93251
C         36.36419      -16.66765       85.11190
H         34.64088      -16.69180       82.20340
H         35.30105      -14.41185       84.09372
H         36.90187      -16.82159       83.01636
H         38.41605      -14.87013       82.95815
H         37.97913      -14.44079       84.65908
H         38.85465      -15.97716       84.28777
H         37.15541      -17.38025       85.42905
H         36.28175      -15.89124       85.90154
H         35.40429      -17.22006       85.04381
N         36.03673      -12.87928       82.24253
C         36.46191      -11.96962       81.18992
C         37.85871      -11.46933       81.49669
O         38.47827      -11.95789       82.42974
C         35.42996      -10.83130       80.94163
C         35.41316       -9.68089       81.92989
N         34.99135       -9.83217       83.20069
O         35.75274       -8.57025       81.54912
H         35.84445      -12.48512       83.17040
H         36.53050      -12.51995       80.22745
H         34.41153      -11.25791       80.83002
H         35.68090      -10.38443       79.95627
H         34.66094      -10.73845       83.53971
H         34.96343       -9.02219       83.83850
N         38.43764      -10.52074       80.71729
C         39.79229      -10.02899       80.92438
C         39.95696       -9.37704       82.29083
O         40.92468       -9.67495       82.97398
C         40.14106       -9.02373       79.81178
C         41.60827       -8.68603       79.79976
C         42.55454       -9.68890       79.52263
C         42.04512       -7.37577       80.04138
C         43.91560       -9.38496       79.48589
C         43.40981       -7.07363       80.00584
C         44.34919       -8.07804       79.72487
O         45.66678       -7.79929       79.67768
H         37.89715      -10.14541       79.92517
H         40.48554      -10.89467       80.84073
H         39.51023       -8.11522       79.93251
H         39.90350       -9.46702       78.82007
H         42.23896      -10.70602       79.32419
H         41.33165       -6.59005       80.25631
H         44.63192      -10.16664       79.26553
H         43.73492       -6.05865       80.19278
H         46.00838       -6.90652       79.82650
N         39.05805       -8.45567       82.74146
C         39.17644       -7.77590       84.03419
C         39.00259       -8.72168       85.24165
O         39.21683       -8.27952       86.36092
C         38.18551       -6.58602       84.04907
C         38.39080       -5.59233       85.20058
C         37.54117       -4.37003       84.98609
O         38.06524       -3.27532       84.85039
O         36.20002       -4.47633       84.92600
H         38.28074       -8.20061       82.11426
H         40.20016       -7.34129       84.07693
H         37.13569       -6.95503       84.03373
H         38.36516       -6.01599       83.10878
H         39.45946       -5.28371       85.22768
H         38.12413       -6.04990       86.17450
N         38.65651      -10.03683       85.09020
C         38.54972      -11.01155       86.18082
C         39.59193      -12.12222       86.05233
O         39.65601      -12.96216       86.94024
C         37.15732      -11.67246       86.14273
C         36.01995      -10.66780       86.33176
C         34.66191      -11.26728       86.07878
O         33.57700      -10.47405       86.09209
O         34.53212      -12.44326       85.78449
H         38.45364      -10.38038       84.15060
H         38.71225      -10.51796       87.16436
H         37.07116      -12.45661       86.92649
H         37.04973      -12.16136       85.15072
H         36.15121       -9.83266       85.61998
H         36.06710      -10.26367       87.35722
N         40.42724      -12.21446       84.98043
C         41.40351      -13.26855       84.83117
H         42.13586      -13.22916       85.66355
H         40.89676      -14.25571       84.81495
H         41.94896      -13.13725       83.87072
H         40.37121      -11.53428       84.22343
Ca        30.66568      -12.59761       84.60239
O         30.81579      -15.57191       86.61409
H         31.34480      -16.22014       86.08628
H         30.17392      -16.13153       87.11722
O         33.54185      -15.00039       86.89053
H         33.62886      -15.93506       87.20157
H         34.32113      -14.86599       86.30078
O         32.44434      -11.54027       82.74549
H         32.09537      -11.42636       81.82773
H         32.17090      -10.71521       83.22067

Ca 1.0



