%chk=holoCaM-CaMKII.loop1.water2.frame440.chk
%nprocshared=20
%mem=10GB
%nosave
#b3lyp/svp scf=(tight,noincore,xqc) Test 
#IOP(5/87=12) Density=Current Pop=(MK,readradii) iop(6/33=2) iop(6/42=6)

holoCaM-CaMKII.loop1.water2.frame440 

   0  1 
C         74.54587       57.04929       18.85201
C         75.95523       56.56354       18.70966
O         76.15175       55.36299       18.70367
H         74.13051       56.71650       19.82584
H         74.48891       58.15515       18.78874
H         73.93383       56.61656       18.03140
N         76.99328       57.43529       18.59178
C         78.36999       57.01747       18.36196
C         79.19833       57.34223       19.59746
O         79.72296       58.44065       19.71607
C         78.84895       57.69724       17.06315
C         80.23209       57.32439       16.63238
O         80.99175       56.49225       17.36262
O         80.67230       57.78499       15.59490
H         76.80013       58.44733       18.64808
H         78.43122       55.91761       18.19720
H         78.79883       58.80196       17.17474
H         78.15651       57.39991       16.24410
N         79.25236       56.43258       20.61582
C         79.87361       56.69273       21.91652
C         81.38533       56.82234       21.89476
O         81.91272       57.31325       22.88426
C         79.53533       55.56264       22.91028
C         78.05845       55.56968       23.31025
C         77.74583       54.38139       24.22836
C         76.35931       54.48206       24.88174
N         75.27534       54.57845       23.90388
H         78.75071       55.54070       20.48152
H         79.46427       57.65200       22.30664
H         80.11831       55.69443       23.84966
H         79.82616       54.58643       22.45957
H         77.40874       55.51770       22.41158
H         77.85784       56.52321       23.84639
H         78.48912       54.34293       25.05502
H         77.83165       53.43904       23.64275
H         76.33281       55.37243       25.54866
H         76.20854       53.57789       25.51208
H         75.30780       53.77009       23.24205
H         74.36297       54.56886       24.41405
H         75.33737       55.47920       23.37727
N         82.15755       56.37152       20.86806
C         83.61899       56.48604       20.88399
C         84.12013       57.44707       19.81690
O         85.31699       57.69488       19.77105
C         84.28657       55.09119       20.83626
C         84.01430       54.28010       19.60458
O         83.32915       54.72291       18.70202
O         84.53931       53.04469       19.49513
H         81.69674       55.93286       20.05832
H         83.95807       56.93558       21.84161
H         83.93315       54.50655       21.71329
H         85.38775       55.21127       20.92860
N         83.25974       58.08591       18.97401
C         83.66071       59.13470       18.05956
C         84.66183       58.67741       17.03389
O         85.71924       59.28080       16.92573
H         82.25389       57.88225       19.01120
H         84.06760       59.98982       18.64031
H         82.75687       59.49445       17.51786
N         84.35840       57.64960       16.20083
C         85.17956       57.25991       15.05957
C         84.43414       57.52681       13.74856
O         84.96632       57.20877       12.69392
C         85.62678       55.78704       15.18689
C         84.50520       54.82585       15.45067
O         83.51138       54.82031       14.74879
O         84.59977       53.95602       16.47156
H         83.46023       57.16052       16.34022
H         86.10943       57.86684       15.00274
H         86.35636       55.69228       16.02073
H         86.15199       55.49140       14.25343
N         83.21918       58.14920       13.73301
C         82.46546       58.45449       12.53156
C         82.04551       57.20962       11.79215
O         82.25506       57.14264       10.59278
H         82.79468       58.46344       14.61310
H         83.04794       59.13440       11.87241
H         81.53729       58.98827       12.83316
N         81.38645       56.21628       12.45277
C         80.85310       54.99245       11.84561
C         79.95036       54.30739       12.86714
O         80.38047       54.07754       13.98893
C         81.91563       53.96285       11.34558
C         82.83141       54.41795       10.19735
O         82.67516       53.44581       12.40396
H         81.19904       56.38205       13.45318
H         80.22888       55.27531       10.96938
H         81.33426       53.11522       10.91855
H         83.44721       54.04973       12.53993
H         82.23179       54.80261        9.34596
H         83.55732       55.18365       10.53759
H         83.43253       53.55450        9.84273
N         78.68311       53.94134       12.53224
C         77.72942       53.37152       13.47833
C         77.61396       51.88203       13.21383
O         77.43415       51.48711       12.07115
C         76.35539       54.09378       13.34657
C         76.52225       55.62662       13.52875
C         75.34890       53.52550       14.37063
C         75.24286       56.41755       13.24534
H         78.37675       54.05851       11.55433
H         78.08018       53.51556       14.52541
H         75.96521       53.90629       12.32115
H         77.27971       56.00240       12.80848
H         76.88216       55.85426       14.55574
H         75.70222       53.70722       15.40911
H         74.34534       53.97775       14.24922
H         75.21364       52.43544       14.22856
H         74.43847       56.17334       13.96665
H         75.45458       57.50382       13.33409
H         74.88824       56.21201       12.21236
N         77.66847       51.00011       14.25366
C         77.57469       49.55357       14.09228
C         76.19310       49.08590       14.50112
O         75.37722       49.88885       14.92163
C         78.65896       48.82643       14.94587
C         80.08605       49.29791       14.64420
O         78.38054       48.92438       16.32177
H         77.70228       51.37444       15.20819
H         77.71913       49.27939       13.02537
H         78.63575       47.74352       14.70392
H         78.69011       49.80444       16.64619
H         80.33211       49.13008       13.57634
H         80.19543       50.37681       14.87889
H         80.80522       48.72888       15.27333
N         75.87225       47.76779       14.41906
C         74.60897       47.23177       14.91192
C         74.46045       47.53488       16.39291
O         73.41761       48.02732       16.80380
C         74.53623       45.69597       14.68862
C         74.45878       45.34085       13.20012
O         75.64936       45.06237       15.26759
H         76.57365       47.11933       14.03593
H         73.75419       47.69131       14.36621
H         73.59978       45.33028       15.17297
H         75.41816       44.10305       15.37341
H         73.56062       45.80825       12.74405
H         75.36218       45.68183       12.65411
H         74.37370       44.23929       13.08484
N         75.47230       47.24095       17.25216
C         75.35843       47.34225       18.70063
C         75.09375       48.76661       19.15100
O         74.12192       49.00037       19.85450
C         76.61756       46.78900       19.41692
C         77.11442       45.40732       18.92270
C         76.03209       44.33770       18.70152
C         75.24243       43.96706       19.95895
N         74.24672       42.94232       19.64168
H         76.34457       46.87859       16.84588
H         74.50476       46.70500       19.01564
H         76.37399       46.72363       20.49977
H         77.47358       47.49170       19.31040
H         77.88861       45.03536       19.62751
H         77.62760       45.53810       17.94678
H         76.53203       43.42488       18.31037
H         75.32459       44.68496       17.92020
H         74.72225       44.86044       20.36360
H         75.93801       43.58459       20.73658
H         73.69990       42.71266       20.50178
H         73.58859       43.29437       18.90759
H         74.72035       42.07573       19.29652
N         75.92177       49.77227       18.75409
C         75.74944       51.17439       19.12881
C         74.35592       51.65692       18.76358
O         73.62793       52.07311       19.65471
C         76.80802       52.03935       18.41182
C         78.24037       51.79660       18.91478
C         79.23506       52.46895       18.01174
O         80.11196       53.37777       18.46019
O         79.28979       52.15343       16.83716
H         76.69695       49.52090       18.12681
H         75.87576       51.28687       20.22945
H         76.58719       53.10370       18.56300
H         76.73997       51.83061       17.32276
H         78.47865       50.71445       18.90773
H         78.33890       52.16713       19.95875
N         73.91381       51.61304       17.47702
C         72.58516       52.02342       17.07049
H         71.96979       52.37840       17.92395
H         72.66323       52.84335       16.32693
H         72.06510       51.16099       16.60277
H         74.54259       51.26145       16.74561
Ca        81.55621       53.90620       16.80387
O         82.27870       51.00315       17.73333
H         81.62996       50.27120       17.88702
H         82.91989       50.93224       18.48382
O         82.54632       51.70147       14.75855
H         83.44492       51.93464       14.41671
H         82.62983       50.75432       15.03165

Ca 1.0



