%chk=holoCaM-CaMKII.loop4.water1.frame347.chk
%nprocshared=20
%mem=10GB
%nosave
#b3lyp/svp scf=(tight,noincore,xqc) Test 
#IOP(5/87=12) Density=Current Pop=(MK,readradii) iop(6/33=2) iop(6/42=6)

holoCaM-CaMKII.loop4.water1.frame347 

   -3  1 
C         32.94845       65.66869       27.36836
C         32.62981       65.04261       26.04440
O         32.65077       63.82503       25.93398
H         33.81726       66.35055       27.26084
H         32.06988       66.25081       27.72043
H         33.18679       64.89255       28.12609
N         32.29443       65.83291       24.98894
C         31.89910       65.29611       23.69355
C         33.06797       64.56203       23.03308
O         34.05791       65.19870       22.69981
C         31.38449       66.45067       22.80951
C         30.76545       66.01071       21.52196
O         30.34557       66.85341       20.75166
O         30.63782       64.70950       21.21366
H         32.26758       66.85418       25.14037
H         31.04950       64.60501       23.87634
H         32.22078       67.15102       22.59426
H         30.59940       67.01007       23.36444
N         33.03749       63.20625       22.86879
C         34.17092       62.43408       22.34927
C         34.33407       62.54622       20.83407
O         35.41490       62.25807       20.34031
C         34.07450       60.92010       22.74070
C         32.92676       60.18646       21.98698
C         33.96555       60.76494       24.27211
C         32.82827       58.69226       22.29877
H         32.22214       62.70320       23.23527
H         35.09014       62.82541       22.84119
H         35.02936       60.43714       22.43374
H         33.10829       60.25865       20.89691
H         31.95157       60.66661       22.18792
H         33.00814       61.16664       24.66244
H         34.03683       59.69991       24.57043
H         34.80304       61.29743       24.76957
H         32.03301       58.23801       21.67009
H         33.79098       58.18762       22.07085
H         32.55675       58.51600       23.35892
N         33.25215       62.77774       20.03563
C         33.26050       62.66004       18.57188
C         32.87379       63.95529       17.85383
O         32.90468       63.96884       16.63086
C         32.35615       61.47479       18.12846
C         30.90853       61.59255       18.53606
O         30.10854       60.73053       18.21236
O         30.49960       62.65173       19.25072
H         32.36411       62.96743       20.50861
H         34.28675       62.41636       18.22060
H         32.75718       60.53407       18.56086
H         32.40417       61.38056       17.02158
N         32.55539       65.09309       18.53074
C         32.33349       66.37855       17.88726
C         31.10421       66.47034       17.00069
O         31.24664       66.84658       15.84615
H         32.55730       65.08716       19.55825
H         33.24227       66.65120       17.30630
H         32.21153       67.14744       18.68044
N         29.85652       66.24549       17.50417
C         28.61490       66.58946       16.79712
C         27.81837       67.63886       17.57505
O         26.68926       67.92673       17.20341
C         27.76945       65.33521       16.48877
C         27.27177       64.55209       17.66690
O         26.71615       63.48298       17.47203
O         27.52320       64.93151       18.92812
H         29.78483       65.88857       18.46732
H         28.83956       67.03382       15.80297
H         28.40299       64.65585       15.87732
H         26.88995       65.62268       15.87329
N         28.36642       68.28640       18.64251
C         27.68074       69.27971       19.44411
C         26.57818       68.68062       20.28361
O         25.48282       69.22019       20.28805
H         29.34507       68.10916       18.89838
H         27.31774       70.11808       18.81070
H         28.41801       69.70050       20.16349
N         26.84054       67.60183       21.07879
C         25.92896       67.06014       22.09706
C         26.59593       65.95252       22.90774
O         27.65536       65.47432       22.52113
C         24.54313       66.63604       21.53408
C         24.50863       65.59133       20.40263
C         24.74962       64.16626       20.84577
N         23.75814       63.24856       20.75598
O         25.84003       63.82351       21.26915
H         27.78658       67.20497       20.99770
H         25.74706       67.88735       22.81854
H         24.06481       67.54520       21.12278
H         23.87665       66.30428       22.35940
H         25.19884       65.87838       19.58328
H         23.48053       65.63417       19.98189
H         22.82536       63.50134       20.39896
H         23.92068       62.27630       21.04886
N         26.06462       65.54487       24.09927
C         26.72932       64.56249       24.95284
C         25.74533       63.47216       25.36232
O         24.83359       63.75234       26.12898
C         27.34248       65.28326       26.19316
C         28.12587       64.31522       27.09024
C         28.28688       66.42253       25.76702
H         25.21221       66.00782       24.45093
H         27.57145       64.08818       24.40191
H         26.52068       65.73298       26.79370
H         27.46880       63.50765       27.46344
H         28.97728       63.87339       26.53217
H         28.53142       64.85203       27.97442
H         28.70535       66.93269       26.66088
H         29.12661       66.02740       25.15696
H         27.74470       67.19031       25.17667
N         25.87087       62.19822       24.88604
C         25.02209       61.08910       25.32826
C         25.38683       60.67024       26.74566
O         26.30515       61.22655       27.32138
C         25.18396       59.86286       24.39354
C         24.63409       60.11709       23.01446
N         25.39885       59.93273       21.91526
O         23.46659       60.45580       22.88767
H         26.59668       62.01198       24.18272
H         23.95429       61.40113       25.30477
H         24.60264       59.00474       24.78732
H         26.25157       59.55363       24.35320
H         26.37137       59.60838       21.99812
H         25.00781       60.08797       20.97441
N         24.71052       59.66250       27.36535
C         25.06810       59.14523       28.68342
C         26.46916       58.55036       28.66208
O         27.28844       58.93110       29.48629
C         24.04096       58.07608       29.11720
C         24.28638       57.55506       30.51490
C         24.24757       58.42630       31.61805
C         24.53691       56.18940       30.73090
C         24.45749       57.94041       32.91147
C         24.74338       55.70508       32.02654
C         24.70337       56.58023       33.12173
O         24.89506       56.12668       34.37689
H         23.91066       59.23630       26.87372
H         25.02450       59.97893       29.41812
H         24.05210       57.24034       28.38288
H         23.02390       58.52415       29.09698
H         24.04994       59.48155       31.48076
H         24.56802       55.49705       29.89884
H         24.42370       58.62243       33.75186
H         24.93096       54.64958       32.17802
H         25.05887       55.19203       34.56720
N         26.81120       57.62359       27.71988
C         28.13052       56.99736       27.62485
C         29.24296       58.03159       27.59055
O         30.20332       57.89995       28.33656
C         28.20654       56.04179       26.40087
C         28.10317       56.73265       25.02647
C         28.10568       55.73234       23.90781
O         29.15895       54.91096       23.73513
O         27.16185       55.67337       23.13574
H         26.09496       57.36329       27.02532
H         28.28272       56.36105       28.52559
H         27.38450       55.29837       26.49508
H         29.17054       55.48731       26.44015
H         28.97397       57.40033       24.87024
H         27.17102       57.33293       24.97209
N         29.14941       59.11199       26.76992
C         30.17107       60.14699       26.66619
C         30.40032       60.80529       28.01508
O         31.52138       60.78290       28.50450
C         29.75269       61.19199       25.60676
C         29.68969       60.57087       24.20073
C         29.23316       61.55930       23.16765
O         29.83141       62.60424       22.99760
O         28.16125       61.28862       22.40555
H         28.29310       59.20552       26.20487
H         31.13011       59.68816       26.33238
H         30.50078       62.01526       25.59002
H         28.76037       61.61510       25.87119
H         28.99191       59.71118       24.17160
H         30.69677       60.19457       23.94301
N         29.37426       61.39049       28.68596
C         29.53651       62.00437       29.98405
H         28.55857       62.39668       30.33756
H         29.90012       61.25227       30.71615
H         30.25679       62.84633       29.91931
H         28.43949       61.38681       28.26960
Ca        28.46475       63.21794       19.95948
O         27.56334       60.43849       19.67643
H         27.92138       59.52662       19.53579
H         26.81964       60.52233       19.02893

Ca 1.0



