%chk=holoCaM-CaMKII.loop3.water1.frame254.chk
%nprocshared=20
%mem=10GB
%nosave
#b3lyp/svp scf=(tight,noincore,xqc) Test 
#IOP(5/87=12) Density=Current Pop=(MK,readradii) iop(6/33=2) iop(6/42=6)

holoCaM-CaMKII.loop3.water1.frame254 

   0  1 
C         88.13907       94.81681       60.26187
C         86.97900       95.06107       61.17523
O         86.30849       94.10916       61.55056
H         89.07296       95.16119       60.75299
H         88.23451       93.73401       60.03091
H         87.99128       95.37545       59.31478
N         86.68564       96.33015       61.57774
C         85.59186       96.64320       62.48333
C         84.58881       97.52231       61.76451
O         84.93686       98.60784       61.32121
C         86.16267       97.27336       63.76488
C         85.15984       97.37954       64.87678
O         83.85685       97.11060       64.67352
O         85.54921       97.62361       66.00667
H         87.27093       97.10760       61.23420
H         85.08626       95.70242       62.79359
H         86.64198       98.25625       63.56954
H         86.94510       96.57297       64.13319
N         83.31934       97.06884       61.57550
C         82.30537       97.76288       60.79305
C         82.00468       99.13904       61.35624
O         82.07899      100.10325       60.60741
C         81.02988       96.89317       60.71697
C         80.03279       97.39461       59.66183
C         78.84312       96.43212       59.53743
C         77.91453       96.84209       58.38629
N         76.79456       95.90944       58.26009
H         83.07900       96.14644       61.96412
H         82.69125       97.86587       59.75335
H         80.54765       96.82278       61.71665
H         81.33594       95.86901       60.40539
H         80.55656       97.43730       58.68108
H         79.67071       98.41378       59.91810
H         78.27780       96.41596       60.49487
H         79.22094       95.40620       59.33039
H         78.49133       96.84511       57.43382
H         77.52349       97.86821       58.56299
H         76.19583       96.19979       57.45347
H         77.14904       94.94097       58.08374
H         76.21807       95.92040       59.13247
N         81.68970       99.30788       62.67355
C         81.36966      100.60983       63.25805
C         82.48119      101.14013       64.16230
O         82.34335      102.25347       64.65048
C         80.00384      100.53554       63.97174
C         79.99242       99.55505       65.11181
O         80.80284       99.74183       66.16684
O         79.24054       98.59358       65.09219
H         81.70018       98.48127       63.29098
H         81.26913      101.37099       62.45380
H         79.23417      100.23861       63.22545
H         79.72687      101.53754       64.36443
N         83.63112      100.44011       64.38671
C         84.76512      100.97629       65.12308
C         84.44292      101.31550       66.55859
O         84.57942      102.47638       66.91915
H         83.74927       99.51310       63.96374
H         85.12625      101.88750       64.59645
H         85.59600      100.23997       65.11489
N         84.03524      100.35679       67.44218
C         83.74109      100.65092       68.84730
C         84.62051       99.87917       69.82716
O         84.48265      100.12065       71.01889
C         82.25029      100.40137       69.15329
C         81.86756       98.93846       69.14451
N         81.36544       98.35326       70.25516
O         82.00611       98.27430       68.13118
H         83.92427       99.39387       67.09560
H         83.92439      101.72968       69.04418
H         81.62845      100.95953       68.42146
H         82.02805      100.82410       70.15757
H         81.23547       98.88585       71.12755
H         81.10208       97.35862       70.23822
N         85.52916       98.94140       69.42457
C         86.37263       98.20312       70.35503
C         86.15372       96.70228       70.31256
O         86.86955       96.01397       71.02542
H         85.65277       98.74041       68.42344
H         86.21190       98.53181       71.40380
H         87.43314       98.41254       70.09798
N         85.22141       96.11169       69.50508
C         85.04474       94.66065       69.41996
C         84.17292       94.32236       68.19495
O         82.91670       94.93901       68.29411
C         84.52099       94.04793       70.75704
C         83.13571       94.48706       71.18906
C         82.97617       95.47663       72.17421
C         81.98786       93.88515       70.63949
C         81.69647       95.87380       72.57906
C         80.71130       94.28592       71.04113
C         80.56092       95.28528       72.01116
O         79.33486       95.68782       72.40247
H         84.65252       96.70742       68.88666
H         86.04194       94.21392       69.21067
H         85.23906       94.29970       71.56278
H         84.53524       92.93759       70.70757
H         83.84105       95.94816       72.62333
H         82.07915       93.10363       69.89592
H         81.58676       96.64473       73.33116
H         79.84096       93.81811       70.59759
H         78.52564       95.31349       72.02515
N         84.05595       92.87457       67.94738
C         83.34509       92.55715       66.68680
C         82.48752       91.32873       66.89594
O         82.62619       90.65880       67.91120
C         84.27862       92.46182       65.41617
C         85.29310       91.28321       65.36546
C         85.06541       93.76593       65.21857
C         84.67020       89.90386       65.14649
H         84.98783       92.40321       67.98272
H         82.60779       93.36353       66.49129
H         83.62608       92.36301       64.52033
H         85.95200       91.27575       66.25764
H         85.94498       91.43533       64.47541
H         85.64730       93.73382       64.27331
H         84.37147       94.61467       65.13407
H         85.77843       93.94259       66.05075
H         84.06567       89.56816       66.00554
H         84.04754       89.91174       64.22601
H         85.47992       89.15698       65.00681
N         81.53059       91.00610       65.98328
C         80.63425       89.86454       66.12224
C         80.69461       88.98371       64.88623
O         81.42985       89.28930       63.96139
C         79.20704       90.38364       66.36522
O         78.75301       91.14079       65.27308
H         81.39939       91.62642       65.17117
H         80.91520       89.24335       67.00051
H         79.19750       90.98493       67.30602
H         78.49940       89.54588       66.53235
H         78.71309       92.08803       65.56620
N         79.91934       87.86779       64.79926
C         79.85906       87.02232       63.61035
C         79.37105       87.81515       62.41113
O         80.00966       87.77397       61.36899
C         78.91366       85.84105       63.85385
H         79.32741       87.62192       65.60727
H         80.86626       86.59888       63.39640
H         79.27918       85.23697       64.71142
H         77.88443       86.19413       64.07837
H         78.88164       85.18751       62.95564
N         78.25294       88.58926       62.51073
C         77.70279       89.38302       61.41508
C         78.74541       90.29143       60.79459
O         78.90793       90.25980       59.58263
C         76.52646       90.22809       61.92238
H         77.78047       88.63161       63.42763
H         77.31432       88.69966       60.62740
H         76.08630       90.81566       61.08838
H         75.73613       89.56991       62.34164
H         76.85966       90.93136       62.71662
N         79.50506       91.11104       61.57148
C         80.51926       92.01330       61.03034
C         81.54392       91.23716       60.22005
O         81.69400       91.51976       59.03935
C         81.21054       92.79921       62.16545
C         80.22547       93.72636       62.90072
C         80.88949       94.43232       64.04270
O         81.84853       95.15545       63.84312
O         80.41943       94.28144       65.29546
H         79.36074       91.06817       62.59066
H         80.02755       92.75072       60.35543
H         82.02416       93.42514       61.73495
H         81.66710       92.08396       62.88186
H         79.36988       93.15267       63.30816
H         79.82556       94.47829       62.18828
N         82.26209       90.22703       60.78354
C         83.22029       89.41850       60.05748
H         84.21615       89.50557       60.53904
H         82.89827       88.35596       60.08904
H         83.31362       89.72199       58.99372
H         82.11479       90.00193       61.77344
Ca        82.82854       96.09789       66.37375
O         79.74114       96.19631       67.89313
H         79.39919       97.09765       68.11965
H         79.16611       95.57659       68.40824

Ca 1.0



