%chk=holoCaM.loop1.water2.frame393.chk
%nprocshared=20
%mem=10GB
%nosave
#b3lyp/svp scf=(tight,noincore,xqc) Test 
#IOP(5/87=12) Density=Current Pop=(MK,readradii) iop(6/33=2) iop(6/42=6)

holoCaM.loop1.water2.frame393 

   0  1 
C         92.49541       68.78695      110.85522
C         92.98517       69.71130      111.93364
O         93.44864       69.25686      112.96896
H         91.41935       68.98932      110.66158
H         93.06272       68.96902      109.91719
H         92.61141       67.72398      111.14964
N         92.89129       71.05011      111.73967
C         93.29827       72.06327      112.70769
C         92.50509       71.96607      114.01906
O         91.29592       71.79043      113.97883
C         93.06127       73.44458      112.07426
C         93.37619       74.53862      113.03303
O         92.47275       75.23745      113.45026
O         94.63200       74.72474      113.47388
H         92.50062       71.36444      110.83577
H         94.38887       71.96954      112.91702
H         91.99089       73.52215      111.77968
H         93.68317       73.57380      111.16061
N         93.13636       72.19295      115.21332
C         92.48621       72.22897      116.52656
C         92.58113       73.59363      117.22786
O         91.99140       73.71917      118.29311
C         93.12193       71.19400      117.49313
C         94.64997       71.37973      117.65347
C         95.17829       70.79882      118.97153
C         96.71950       70.74782      119.05496
N         97.36250       72.04415      118.84030
H         94.13594       72.39272      115.17997
H         91.40410       71.99933      116.41560
H         92.92170       70.15138      117.16576
H         92.62368       71.31977      118.47984
H         94.91349       72.45778      117.66190
H         95.13784       70.89290      116.78585
H         94.80611       69.76165      119.10122
H         94.77888       71.42072      119.80498
H         97.10483       70.02754      118.30166
H         96.99569       70.37285      120.06519
H         98.39367       71.94254      118.98127
H         97.21110       72.35918      117.85760
H         97.00064       72.74871      119.51973
N         93.30220       74.64255      116.73811
C         93.47680       75.90434      117.46367
C         92.67402       77.02312      116.82238
O         92.83216       78.16552      117.23345
C         94.96242       76.31375      117.44106
C         95.89327       75.26175      117.95771
O         96.78814       74.69523      117.11775
O         95.83521       74.91079      119.12463
H         93.76344       74.55666      115.82534
H         93.15129       75.81422      118.52436
H         95.12345       77.25049      118.01996
H         95.21172       76.51488      116.38953
N         91.77514       76.78233      115.82654
C         91.04248       77.84812      115.17093
C         91.89783       78.69761      114.24023
O         91.39336       79.71492      113.78933
H         91.55388       75.81495      115.55884
H         90.56841       78.47930      115.95298
H         90.22786       77.41252      114.55296
N         93.15205       78.32259      113.83996
C         93.96659       79.09526      112.89558
C         94.05801       78.44958      111.51608
O         94.73643       79.01164      110.66652
C         95.36080       79.41117      113.49220
C         96.06067       78.25470      114.15267
O         96.38968       77.12206      113.50365
O         96.34836       78.35193      115.33442
H         93.53507       77.42560      114.17068
H         93.49753       80.07996      112.68331
H         95.21317       80.18271      114.27938
H         96.01937       79.85934      112.71786
N         93.35007       77.33388      111.17644
C         93.33963       76.77783      109.83044
C         94.68088       76.26188      109.34763
O         94.75350       75.88222      108.18690
H         92.72512       76.90582      111.86180
H         92.99367       77.57209      109.13356
H         92.60901       75.94089      109.77891
N         95.78165       76.21958      110.15294
C         97.10576       75.81277      109.69704
C         97.54144       74.54938      110.42798
O         96.86555       74.12365      111.35620
C         98.05059       77.03520      109.86773
C         99.52931       76.79105      109.55175
O         97.57766       78.10419      109.08441
H         95.69904       76.50036      111.13791
H         97.07300       75.53982      108.61854
H         98.00474       77.35845      110.92901
H         97.63998       77.82853      108.13098
H         99.65957       76.45006      108.50345
H        100.09363       77.73765      109.69109
H         99.96122       76.04724      110.25160
N         98.60376       73.82934      109.96489
C         98.96196       72.49864      110.43935
C        100.40558       72.47385      110.94058
O        101.31108       72.86982      110.21948
C         98.72779       71.48725      109.27591
C         97.25239       71.49766      108.77175
C         99.15417       70.05717      109.64641
C         96.19573       71.06023      109.79943
H         99.12659       74.18566      109.15076
H         98.30443       72.18280      111.27273
H         99.36465       71.79914      108.41783
H         97.17152       70.82140      107.89330
H         96.98956       72.51739      108.41779
H        100.23376       70.01960      109.89515
H         98.58292       69.67827      110.51384
H         98.98731       69.37766      108.78404
H         95.18936       71.10569      109.33196
H         96.36384       70.01705      110.13471
H         96.17892       71.72543      110.68396
N        100.67855       71.92953      112.16057
C        102.00122       71.72939      112.74238
C        102.30779       70.23672      112.75937
O        101.54210       69.46257      112.20144
C        102.03295       72.30346      114.19044
C        101.87000       73.82799      114.22289
O        101.08774       71.65651      115.01270
H         99.89737       71.54682      112.69860
H        102.79322       72.22532      112.14026
H        103.02669       72.12230      114.64562
H        100.24821       72.18348      115.01356
H        100.89309       74.13201      113.79429
H        101.93167       74.17824      115.27596
H        102.68832       74.30914      113.64812
N        103.41836       69.75454      113.38275
C        103.70801       68.32878      113.51104
C        102.60618       67.63758      114.31660
O        102.09690       66.62320      113.86644
C        105.09418       68.11715      114.16451
C        105.50649       66.64020      114.13163
O        106.05249       68.85806      113.45106
H        104.07856       70.42582      113.80132
H        103.76471       67.88495      112.49032
H        105.04667       68.47680      115.21984
H        106.79013       69.06424      114.08291
H        105.56331       66.28487      113.07885
H        106.50845       66.51853      114.59397
H        104.78342       66.00776      114.68600
N        102.17072       68.15404      115.50659
C        101.08059       67.56599      116.29775
C         99.72542       67.53335      115.58483
O         98.81568       66.93458      116.14381
C        100.89766       68.34660      117.62929
C        102.00842       68.10756      118.66887
C        101.92685       66.68200      119.24777
C        102.92199       66.45425      120.38937
N        102.76929       65.10466      120.93655
H        102.63497       69.00490      115.85956
H        101.33234       66.50747      116.50637
H         99.94226       68.06711      118.12666
H        100.82410       69.43145      117.39041
H        101.83689       68.81947      119.50658
H        103.01165       68.31515      118.23853
H        102.12254       65.92912      118.45861
H        100.90147       66.51977      119.64873
H        102.73915       67.19680      121.19792
H        103.95977       66.58779      120.01282
H        103.45433       64.96556      121.71346
H        101.80167       64.97720      121.31458
H        102.94900       64.39103      120.19305
N         99.49460       68.13716      114.38426
C         98.19876       68.11525      113.70390
C         98.28297       67.43081      112.33962
O         97.25142       67.29663      111.69569
C         97.69092       69.56108      113.51431
C         97.70968       70.37544      114.81900
C         97.37055       71.82322      114.58672
O         98.00946       72.49907      113.80097
O         96.40735       72.41203      115.30031
H        100.24804       68.67090      113.94988
H         97.45496       67.55578      114.31167
H         96.66721       69.55781      113.07844
H         98.36232       70.05123      112.78950
H         98.72846       70.35392      115.25264
H         97.01306       69.92402      115.55713
N         99.46386       66.98654      111.81860
C         99.55977       66.36002      110.51867
H        100.62029       66.10336      110.30248
H         98.95765       65.42848      110.49795
H         99.20267       67.05654      109.73257
H        100.33825       67.10073      112.33685
Ca        96.95509       75.51456      115.00002
O         99.65692       75.34995      115.96319
H        100.08161       76.21015      115.71894
H         99.51445       75.40935      116.94032
O         99.28619       76.45212      113.04401
H         99.08675       77.36252      113.37854
H        100.27004       76.43841      112.94021

Ca 1.0



