%chk=holoCaM.loop3.water2.frame500.chk
%nprocshared=20
%mem=10GB
%nosave
#b3lyp/svp scf=(tight,noincore,xqc) Test 
#IOP(5/87=12) Density=Current Pop=(MK,readradii) iop(6/33=2) iop(6/42=6)

holoCaM.loop3.water2.frame500 

   0  1 
C         83.57159       54.79318       24.63591
C         84.09777       53.61183       25.38528
O         84.22515       52.54385       24.80116
H         82.63872       55.15182       25.11609
H         84.33164       55.60254       24.64669
H         83.35673       54.51959       23.58063
N         84.45883       53.73694       26.69270
C         85.03723       52.62709       27.42765
C         84.01338       51.51321       27.60480
O         82.96161       51.74273       28.18619
C         85.60571       53.08206       28.78294
C         86.45993       51.99803       29.36799
O         86.71377       50.88680       28.64998
O         86.91508       52.11632       30.49011
H         84.37392       54.65910       27.14806
H         85.89300       52.26086       26.82466
H         84.76875       53.33452       29.47097
H         86.24837       53.97978       28.66122
N         84.25376       50.28715       27.06741
C         83.26032       49.22284       27.01019
C         82.89283       48.66558       28.38206
O         81.70900       48.59405       28.67922
C         83.74761       48.09869       26.06520
C         82.57953       47.36997       25.38762
C         83.09160       46.33752       24.37487
C         81.94676       45.81745       23.49590
N         82.43036       44.81873       22.54383
H         85.15042       50.14975       26.57795
H         82.36051       49.66702       26.52704
H         84.42476       47.39471       26.59276
H         84.31061       48.56515       25.22557
H         81.99101       48.13606       24.83349
H         81.91557       46.88312       26.13359
H         83.58120       45.50215       24.92084
H         83.84195       46.81071       23.70258
H         81.50882       46.67293       22.93173
H         81.14984       45.37073       24.12917
H         83.18855       45.22270       21.94661
H         82.79294       43.98395       23.05854
H         81.63903       44.52204       21.92820
N         83.85401       48.25892       29.27077
C         83.54427       47.63944       30.56493
C         83.66441       48.60590       31.73386
O         83.36984       48.20179       32.85153
C         84.38791       46.35075       30.76360
C         85.86988       46.54511       30.99593
O         86.60151       45.57158       31.05878
O         86.38603       47.75748       31.24138
H         84.84126       48.40830       29.02355
H         82.47938       47.31900       30.56276
H         84.24985       45.71891       29.86100
H         84.00309       45.78433       31.63950
N         84.04300       49.90379       31.55969
C         84.08354       50.86657       32.64334
C         85.09739       50.50245       33.69669
O         84.72464       50.38135       34.85499
H         84.27641       50.25181       30.61901
H         83.07047       50.96045       33.09530
H         84.36292       51.86177       32.23418
N         86.41303       50.36300       33.36578
C         87.46866       50.15014       34.35343
C         88.41314       51.35162       34.41366
O         89.31529       51.34136       35.23966
C         88.21170       48.82149       34.07396
C         89.18149       48.87526       32.91340
N         90.47299       48.50357       33.07496
O         88.80443       49.24638       31.81773
H         86.67428       50.45398       32.37498
H         87.00959       50.04707       35.36056
H         87.45308       48.02851       33.89257
H         88.77817       48.52930       34.98399
H         90.82038       48.16708       33.98436
H         91.12766       48.53432       32.27890
N         88.26488       52.42047       33.56951
C         89.10425       53.60505       33.57591
C         89.91693       53.75183       32.30075
O         90.59685       54.76043       32.17448
H         87.51363       52.42818       32.87119
H         89.81886       53.59236       34.42662
H         88.44360       54.48947       33.70075
N         89.97885       52.76025       31.36111
C         90.92726       52.76325       30.24973
C         90.28123       52.35363       28.94159
O         89.60480       51.33496       28.89434
C         92.04168       51.75730       30.58699
C         92.82793       52.24986       31.77579
C         92.67837       51.64557       33.03251
C         93.70059       53.34349       31.63649
C         93.38396       52.13285       34.13605
C         94.41620       53.81993       32.73736
C         94.25656       53.21759       33.99341
O         94.93263       53.67259       35.06720
H         89.45241       51.88858       31.51600
H         91.40746       53.75831       30.11720
H         92.74272       51.61855       29.73392
H         91.57117       50.77104       30.79787
H         91.99952       50.81428       33.16308
H         93.83078       53.82286       30.67343
H         93.24861       51.66824       35.10401
H         95.08987       54.65881       32.61334
H         95.54617       54.41900       35.00979
N         90.58410       53.03800       27.80233
C         90.18765       52.61413       26.46592
C         91.41104       52.01473       25.79879
O         92.43460       52.67977       25.70107
C         89.61073       53.81218       25.65157
C         88.31107       54.31661       26.31949
C         89.34806       53.40306       24.18413
C         87.71372       55.56959       25.67734
H         91.23489       53.83674       27.86772
H         89.40158       51.82648       26.51469
H         90.36141       54.63341       25.64925
H         88.51125       54.55824       27.38465
H         87.56042       53.50941       26.27997
H         88.61357       52.57113       24.12795
H         88.97849       54.25429       23.58033
H         90.28897       53.08445       23.69526
H         86.79949       55.86339       26.23502
H         88.44307       56.40513       25.72014
H         87.41200       55.39247       24.62577
N         91.35161       50.75647       25.28168
C         92.44122       50.13052       24.55003
C         92.25666       50.37642       23.06939
O         91.26515       50.97668       22.68794
C         92.48294       48.62384       24.87307
O         91.28548       48.00771       24.47039
H         90.44558       50.27298       25.29088
H         93.41110       50.58660       24.84631
H         92.63667       48.50600       25.97153
H         93.32963       48.13165       24.35028
H         91.06132       47.31855       25.14873
N         93.18667       49.97819       22.16609
C         93.02857       50.19670       20.73240
C         91.83427       49.42072       20.19810
O         91.01294       49.99921       19.50332
C         94.30356       49.79887       19.98904
H         94.04261       49.51569       22.51373
H         92.88422       51.28417       20.53418
H         94.53717       48.72416       20.13304
H         94.18906       50.01060       18.90410
H         95.15301       50.40892       20.36799
N         91.66312       48.10649       20.52570
C         90.53832       47.29095       20.06708
C         89.20252       47.92631       20.41261
O         88.38994       48.11337       19.51666
C         90.61799       45.89013       20.68815
H         92.35936       47.67284       21.15114
H         90.60422       47.17214       18.96264
H         90.55656       45.94342       21.79667
H         89.78483       45.25728       20.31397
H         91.57722       45.40406       20.40981
N         88.92472       48.31739       21.68755
C         87.67953       48.97681       22.08429
C         87.43051       50.20956       21.22903
O         86.35972       50.32219       20.64883
C         87.72034       49.35937       23.58402
C         87.70646       48.11399       24.49087
C         87.76182       48.47734       25.94817
O         86.75535       48.13416       26.76665
O         88.73148       49.05143       26.41045
H         89.65880       48.17499       22.39678
H         86.81995       48.28484       21.93440
H         86.82009       49.96428       23.83328
H         88.62039       49.98071       23.78187
H         88.56395       47.44742       24.26855
H         86.76914       47.54727       24.29695
N         88.39471       51.15141       21.06673
C         88.22025       52.31639       20.22928
H         87.40699       52.95405       20.63259
H         89.16214       52.90621       20.20625
H         87.97654       52.00556       19.19067
H         89.29760       51.01851       21.52429
Ca        87.27999       49.00468       29.63604
O         88.06395       45.93346       28.08917
H         87.08701       45.86261       28.23586
H         88.46110       45.80416       28.98634
O         90.71887       47.94299       28.98623
H         90.93949       47.01089       28.73462
H         91.52885       48.46163       28.75069

Ca 1.0



