%chk=holoCaM.loop4.water3.frame15.chk
%nprocshared=20
%mem=10GB
%nosave
#b3lyp/svp scf=(tight,noincore,xqc) Test 
#IOP(5/87=12) Density=Current Pop=(MK,readradii) iop(6/33=2) iop(6/42=6)

holoCaM.loop4.water3.frame15 

   -3  1 
C         77.50023       22.62222       44.50222
C         77.79606       23.44535       43.28561
O         76.95369       24.24992       42.91625
H         76.58156       22.02328       44.33149
H         78.33900       21.93853       44.74554
H         77.33297       23.29984       45.36719
N         78.99088       23.33508       42.63315
C         79.34901       24.20258       41.51954
C         80.18475       23.46051       40.48310
O         81.24413       22.95972       40.83646
C         80.15854       25.39163       42.07042
C         80.37955       26.46988       41.05020
O         79.83066       26.42125       39.96230
O         81.15095       27.52823       41.35870
H         79.71171       22.70932       43.02401
H         78.42535       24.60633       41.05099
H         81.13734       25.02561       42.44828
H         79.61664       25.85745       42.91975
N         79.78986       23.38625       39.17758
C         80.59309       22.75391       38.12937
C         80.96272       23.71837       36.99174
O         81.73566       23.29803       36.14140
C         79.88159       21.47370       37.58226
C         78.51611       21.79938       36.91719
C         79.73567       20.43614       38.71241
C         77.82034       20.58696       36.29258
H         78.88580       23.79552       38.92135
H         81.56645       22.42344       38.55507
H         80.54352       21.02052       36.81001
H         78.67896       22.54069       36.10588
H         77.82188       22.23946       37.65831
H         79.05861       20.80764       39.51039
H         79.34175       19.47356       38.32850
H         80.72914       20.21650       39.15842
H         78.47306       20.11233       35.53027
H         77.54244       19.83814       37.06207
H         76.88004       20.91640       35.80144
N         80.44567       24.98509       36.87077
C         80.74408       25.86036       35.72685
C         81.17411       27.29090       36.09334
O         81.44738       28.05347       35.17625
C         79.54918       25.87098       34.74787
C         78.26153       26.42878       35.28404
O         78.15058       26.84709       36.55631
O         77.29399       26.49975       34.54469
H         79.75022       25.30500       37.55415
H         81.58830       25.43511       35.14163
H         79.35701       24.82797       34.41340
H         79.83238       26.46444       33.85153
N         81.29444       27.72933       37.37964
C         81.78291       29.06110       37.73633
C         80.87429       30.23690       37.38297
O         81.29318       31.36164       37.61469
H         81.12284       27.07198       38.14358
H         82.77186       29.21004       37.25290
H         81.93948       29.10084       38.83682
N         79.62755       30.07664       36.85749
C         78.73192       31.18828       36.51132
C         78.47742       32.17399       37.65960
O         78.65033       33.36488       37.43731
C         77.39778       30.67719       35.90048
C         76.63988       29.64689       36.70060
O         77.16588       29.12600       37.82291
O         75.57833       29.22195       36.27739
H         79.30087       29.11923       36.68596
H         79.21008       31.78253       35.69956
H         77.62432       30.20204       34.92108
H         76.73999       31.55271       35.70514
N         78.08492       31.77136       38.90005
C         77.80307       32.67362       40.00765
C         76.44590       32.41919       40.64684
O         76.17537       33.03112       41.66880
H         78.02829       30.77353       39.10145
H         77.87226       33.74157       39.70767
H         78.57089       32.48902       40.78887
N         75.55426       31.52209       40.12899
C         74.29177       31.15761       40.77364
C         74.28903       29.65820       41.04663
O         75.26159       29.00062       40.72217
C         73.11091       31.51363       39.84339
C         73.02960       33.01434       39.53511
C         71.80915       33.31693       38.70080
N         71.92563       33.85555       37.46485
O         70.69826       33.07532       39.15042
H         75.77132       31.04575       39.24311
H         74.15883       31.69027       41.74009
H         72.16053       31.21435       40.33416
H         73.20084       30.94876       38.88813
H         73.95070       33.33013       38.99956
H         72.95990       33.59106       40.48246
H         72.85001       34.06783       37.06315
H         71.08453       34.05914       36.90424
N         73.20236       29.04056       41.59784
C         73.07459       27.58329       41.68352
C         71.96938       27.13729       40.73801
O         71.04403       27.89851       40.49410
C         72.86950       27.07029       43.13313
C         74.10452       27.36756       43.99498
C         71.61146       27.63901       43.80347
H         72.39842       29.61552       41.88445
H         74.00446       27.09647       41.31468
H         72.76086       25.96277       43.08936
H         74.28471       28.46087       44.07365
H         73.97295       26.95166       45.01667
H         74.99889       26.88389       43.55206
H         70.70692       27.38523       43.21352
H         71.49272       27.19620       44.81574
H         71.67938       28.74103       43.91459
N         72.07839       25.95034       40.07405
C         71.18892       25.55289       38.98442
C         70.47003       24.25203       39.30082
O         70.71821       23.65223       40.33589
C         72.07320       25.43325       37.72322
C         71.37004       25.12641       36.42708
N         70.45395       25.98116       35.91861
O         71.65256       24.10753       35.81382
H         72.87490       25.33471       40.29370
H         70.41388       26.33019       38.81452
H         72.84617       24.65320       37.91149
H         72.57779       26.40956       37.58419
H         70.21447       26.85230       36.41270
H         69.99009       25.77456       35.02221
N         69.51712       23.78237       38.44408
C         68.78824       22.53284       38.63989
C         69.65399       21.29293       38.40122
O         69.16296       20.20055       38.64939
C         67.52125       22.51280       37.74696
C         67.82512       22.45808       36.26676
C         68.07080       21.22342       35.64449
C         67.86054       23.63183       35.49448
C         68.36267       21.16442       34.27967
C         68.16872       23.57208       34.13238
C         68.42443       22.34085       33.52116
O         68.72901       22.29972       32.20887
H         69.25845       24.37933       37.65164
H         68.42489       22.52159       39.69192
H         66.93525       23.43097       37.97489
H         66.86102       21.65878       38.01366
H         68.03540       20.30419       36.21462
H         67.66821       24.59628       35.94770
H         68.55305       20.20415       33.81758
H         68.21276       24.48531       33.55264
H         68.92487       21.46840       31.75355
N         70.94151       21.37395       37.94130
C         71.81770       20.21392       37.77482
C         72.88519       20.18865       38.85967
O         73.68563       19.26415       38.87921
C         72.48165       20.22453       36.38128
C         71.45390       20.18451       35.24844
C         72.12153       20.11436       33.90523
O         71.89354       19.06365       33.09386
O         72.86411       21.01070       33.53715
H         71.35650       22.29620       37.75085
H         71.24169       19.26925       37.88538
H         73.13785       19.33032       36.29053
H         73.11367       21.13502       36.27450
H         70.83344       21.10086       35.28794
H         70.80140       19.29308       35.37537
N         72.92685       21.15173       39.82220
C         73.85949       21.18217       40.93220
C         73.10943       21.05675       42.25486
O         73.75682       21.08566       43.29287
C         74.60971       22.52380       40.89184
C         75.37840       22.72389       39.57648
C         75.97002       24.09855       39.47702
O         75.79021       25.00562       40.45596
O         76.59141       24.41249       38.47680
H         72.25472       21.92228       39.79747
H         74.58983       20.34610       40.86841
H         75.32080       22.58728       41.74203
H         73.85979       23.33737       41.00095
H         74.69309       22.60763       38.71004
H         76.18333       21.96121       39.50226
N         71.74977       20.91695       42.30859
C         71.03221       20.82258       43.55929
H         69.94323       20.71921       43.36072
H         71.37638       19.93432       44.12846
H         71.19524       21.74304       44.15869
H         71.18288       20.87717       41.45019
Ca        76.43755       27.34003       38.96765
O         74.94332       26.02166       36.94559
H         75.44537       25.92036       36.10353
H         74.71331       26.98238       36.98630
O         77.13801       27.57747       42.35467
H         77.26723       26.78594       41.77575
H         77.78309       27.45626       43.09453
O         78.84647       29.18279       40.79691
H         79.51207       29.22989       40.06517
H         79.07312       29.94106       41.39080

Ca 1.0



