%chk=holoCaM-CaMKII.loop4.water1.frame356.chk
%nprocshared=20
%mem=10GB
%nosave
#b3lyp/svp scf=(tight,noincore,xqc) Test 
#IOP(5/87=12) Density=Current Pop=(MK,readradii) iop(6/33=2) iop(6/42=6)

holoCaM-CaMKII.loop4.water1.frame356 

   -3  1 
C         62.33127       60.82835        9.96489
C         62.12274       60.37118        8.55300
O         61.98060       59.18063        8.31900
H         63.29969       61.36516       10.04376
H         61.50926       61.51796       10.25336
H         62.33620       59.96594       10.66402
N         62.06965       61.28898        7.55232
C         61.82044       60.94160        6.15829
C         62.97764       60.12100        5.60658
O         64.11762       60.55228        5.70754
C         61.58964       62.23231        5.35110
C         60.89420       62.03638        4.03201
O         60.48457       63.02626        3.45701
O         60.57554       60.81745        3.54619
H         62.16878       62.28431        7.81008
H         60.86373       60.37139        6.11991
H         62.52844       62.81547        5.23287
H         60.87699       62.85340        5.93950
N         62.74395       58.92547        4.99963
C         63.78529       58.02423        4.50470
C         63.96495       58.18622        2.98566
O         64.80811       57.50950        2.41794
C         63.44019       56.55232        4.95502
C         63.21186       56.49864        6.49416
C         64.52526       55.53262        4.54376
C         62.80633       55.12274        7.03651
H         61.76702       58.64823        4.86439
H         64.76394       58.29991        4.95610
H         62.48997       56.24879        4.46238
H         62.38131       57.18415        6.75339
H         64.12523       56.83733        7.02893
H         64.63944       55.45996        3.44854
H         65.50116       55.79099        5.00588
H         64.24409       54.50409        4.84172
H         62.58028       55.20577        8.12064
H         61.90251       54.74694        6.51563
H         63.62423       54.38234        6.93233
N         63.26572       59.11410        2.26704
C         63.40180       59.29170        0.82292
C         63.99742       60.64994        0.50518
O         65.01372       60.72437       -0.17052
C         62.01474       59.19355        0.14744
C         61.34559       57.87550        0.39081
O         61.86236       56.83925        0.00688
O         60.15480       57.83607        1.01714
H         62.61022       59.73519        2.75199
H         64.06188       58.51256        0.38106
H         62.12388       59.34197       -0.94897
H         61.34529       59.99491        0.53141
N         63.36137       61.77117        0.92941
C         63.73130       63.13210        0.58325
C         62.60014       63.76791       -0.20132
O         62.83531       64.30816       -1.27234
H         62.53387       61.64531        1.52347
H         64.67303       63.17738       -0.00740
H         63.88897       63.69807        1.52583
N         61.32520       63.68558        0.27196
C         60.13839       64.22513       -0.37427
C         59.32053       65.08091        0.60658
O         58.23436       65.50964        0.24349
C         59.31941       63.06640       -1.00194
C         58.79651       62.02365       -0.05481
O         58.16475       61.07482       -0.49060
O         59.01178       62.11492        1.26341
H         61.16978       63.16858        1.13929
H         60.42309       64.87069       -1.23408
H         59.97156       62.54775       -1.73968
H         58.45548       63.49255       -1.55530
N         59.80852       65.42458        1.84106
C         59.13641       66.32489        2.76832
C         57.98081       65.73953        3.56855
O         57.41519       66.49199        4.34780
H         60.76483       65.14950        2.10217
H         58.80511       67.23053        2.21609
H         59.88188       66.65701        3.52380
N         57.57622       64.43960        3.46638
C         56.46197       63.87397        4.24485
C         56.91936       62.69115        5.07969
O         58.06210       62.28837        4.94404
C         55.27700       63.56117        3.28674
C         55.57560       62.67744        2.04424
C         55.47104       61.14716        2.20597
N         54.07329       60.73277        2.27915
O         56.12471       60.67862        3.34260
H         58.07097       63.82810        2.80883
H         56.08891       64.62462        4.97470
H         55.00540       64.56005        2.87858
H         54.38229       63.18911        3.83101
H         56.54161       62.94967        1.58956
H         54.82948       62.94369        1.26399
H         53.57609       61.03700        1.41137
H         54.05056       59.68913        2.28052
N         56.09863       62.10630        6.00937
C         56.49612       60.91006        6.75693
C         55.31252       59.94616        6.85376
O         54.36866       60.24471        7.57273
C         57.03485       61.26710        8.17984
C         57.59269       60.02072        8.89137
C         58.14619       62.32729        8.13193
H         55.17503       62.52511        6.19438
H         57.32553       60.41006        6.21307
H         56.20426       61.68578        8.79003
H         58.44700       59.59555        8.32074
H         57.95031       60.27935        9.91109
H         56.81367       59.24536        9.00184
H         57.76681       63.27361        7.69483
H         58.49769       62.55841        9.16108
H         59.01131       61.96741        7.53584
N         55.29319       58.76778        6.16346
C         54.23724       57.76327        6.32549
C         54.31453       57.11229        7.69790
O         55.23165       57.38630        8.45234
C         54.37954       56.65221        5.25388
C         53.97432       57.12421        3.88445
N         52.68947       57.47321        3.63555
O         54.79548       57.15430        2.98290
H         56.05448       58.57792        5.50065
H         53.24110       58.24660        6.22481
H         53.72162       55.78608        5.47624
H         55.42904       56.28154        5.25492
H         51.97597       57.42091        4.37768
H         52.39836       57.77245        2.69348
N         53.36732       56.21031        8.07849
C         53.42014       55.46676        9.33389
C         54.63895       54.56117        9.35280
O         55.40063       54.59971       10.30833
C         52.14094       54.61593        9.49058
C         52.10604       53.85477       10.79678
C         52.10910       54.54059       12.02431
C         52.05936       52.45040       10.79817
C         52.06645       53.83376       13.22959
C         52.01547       51.74576       12.00499
C         52.01761       52.43624       13.22553
O         51.97025       51.76980       14.39664
H         52.57850       56.03509        7.43670
H         53.46065       56.18399       10.18307
H         52.06619       53.91201        8.63221
H         51.25197       55.28187        9.45403
H         52.14011       55.62226       12.05109
H         52.05577       51.89887        9.86628
H         52.06772       54.37405       14.16802
H         51.97773       50.66383       11.98975
H         51.92775       50.80374       14.43767
N         54.88249       53.73318        8.29688
C         56.01135       52.81020        8.20752
C         57.32608       53.49497        8.53051
O         58.07368       52.98154        9.35167
C         56.03544       52.11666        6.81630
C         56.28216       53.06336        5.62504
C         56.12294       52.35121        4.31363
O         55.28516       52.72971        3.50979
O         56.91053       51.30254        4.00931
H         54.22785       53.77738        7.50157
H         55.86341       52.00268        8.95899
H         55.05164       51.61636        6.67771
H         56.82038       51.32841        6.80949
H         57.31303       53.46853        5.66985
H         55.56194       53.90563        5.65481
N         57.65240       54.68187        7.95319
C         58.90039       55.38211        8.23050
C         58.95218       55.76549        9.69959
O         59.85843       55.32809       10.39436
C         59.05289       56.60978        7.30639
C         59.03613       56.18239        5.82296
C         59.20971       57.34007        4.90442
O         60.04555       57.30592        4.01805
O         58.39656       58.39794        5.01333
H         56.97145       55.10422        7.30693
H         59.75311       54.70400        8.00192
H         60.01442       57.11929        7.53418
H         58.22286       57.32736        7.48827
H         58.05808       55.73694        5.56525
H         59.82565       55.42848        5.62210
N         57.97513       56.54139       10.24574
C         57.89486       56.87635       11.65296
H         56.93387       56.49442       12.06094
H         58.72178       56.43058       12.24352
H         57.91813       57.97884       11.77523
H         57.22644       56.89261        9.64069
Ca        58.38469       60.32849        3.18403
O         57.46722       57.08012        1.82604
H         57.41099       56.39870        2.54235
H         57.23743       57.93245        2.27442

Ca 1.0



