%chk=holoCaM.loop2.water2.frame336.chk
%nprocshared=20
%mem=10GB
%nosave
#b3lyp/svp scf=(tight,noincore,xqc) Test 
#IOP(5/87=12) Density=Current Pop=(MK,readradii) iop(6/33=2) iop(6/42=6)

holoCaM.loop2.water2.frame336 

   -2  1 
C         12.72664       30.07249       -4.91098
C         12.23717       30.42052       -6.29164
O         11.29195       29.80892       -6.75978
H         13.57887       30.71824       -4.60576
H         11.90680       30.22665       -4.17687
H         13.05722       29.01511       -4.87459
N         12.82548       31.42918       -6.98610
C         12.36310       31.93477       -8.27648
C         12.48242       30.93265       -9.42700
O         13.50552       30.27854       -9.56502
C         13.15507       33.20542       -8.61207
C         12.69108       33.80270       -9.89466
O         13.48359       33.97168      -10.80650
O         11.39095       34.11586      -10.05347
H         13.61343       31.91732       -6.53146
H         11.29910       32.24608       -8.16927
H         14.24093       32.97632       -8.67432
H         12.99372       33.95294       -7.80613
N         11.46344       30.83728      -10.33501
C         11.43232       29.95211      -11.49549
C         11.06622       30.68745      -12.80350
O         10.77426       30.00732      -13.77844
C         10.38114       28.87520      -11.20255
H         10.62959       31.41567      -10.18292
H         12.40021       29.42392      -11.63592
H         10.66185       28.32882      -10.27603
H          9.37725       29.32927      -11.05764
H         10.33118       28.13629      -12.03046
N         11.05539       32.05439      -12.91261
C         10.54657       32.76191      -14.10670
C         10.83523       34.29075      -14.19176
O         10.47392       34.87237      -15.20635
C          9.01215       32.54959      -14.20321
C          8.30712       33.08281      -12.98177
O          9.02742       33.55714      -11.94568
O          7.08802       33.12428      -12.94439
H         11.39175       32.57945      -12.10706
H         11.03802       32.32827      -15.00617
H          8.75365       31.47785      -14.32403
H          8.62951       33.08268      -15.10242
N         11.49694       35.00153      -13.23142
C         11.89615       36.39924      -13.35746
C         10.79955       37.45198      -13.26333
O         11.14860       38.61702      -13.39589
H         11.84306       34.52916      -12.40655
H         12.44989       36.52290      -14.31383
H         12.61021       36.63127      -12.53629
N          9.48163       37.16793      -13.04504
C          8.45508       38.21796      -13.03301
C          8.61123       39.28658      -11.93539
O          8.29240       40.43242      -12.22248
C          7.00796       37.66819      -13.11029
C          6.61833       36.56767      -12.12053
N          5.18389       36.32550      -12.14663
O          7.01038       36.83153      -10.82403
H          9.19307       36.18502      -12.94587
H          8.55670       38.78022      -13.99024
H          6.86190       37.21448      -14.11439
H          6.30405       38.52465      -13.02525
H          4.94332       35.85688      -13.04670
H          4.94876       35.66531      -11.37279
N          9.07155       39.01239      -10.67934
C          9.23436       40.02937       -9.62929
C          8.41073       39.75445       -8.37196
O          8.55065       40.48569       -7.40234
H          9.33580       38.04509      -10.45950
H          8.96329       41.04462       -9.99331
H         10.30671       40.05327       -9.34279
N          7.52179       38.72926       -8.33115
C          6.67973       38.33138       -7.21136
C          6.94848       36.86622       -6.86516
O          7.77160       36.22934       -7.50914
C          5.18460       38.49589       -7.62510
C          4.80643       39.96221       -7.82724
O          4.91212       37.79489       -8.81428
H          7.40888       38.18280       -9.17045
H          6.88198       38.95071       -6.30995
H          4.50726       38.13265       -6.82089
H          4.84831       36.83194       -8.58293
H          5.41239       40.42502       -8.63333
H          3.73246       40.03225       -8.10678
H          4.95678       40.52666       -6.88249
N          6.21736       36.25303       -5.89260
C          6.25580       34.82468       -5.60177
C          4.97131       34.19867       -6.12640
O          3.88504       34.68814       -5.84802
C          6.52796       34.57299       -4.08030
C          8.06341       34.64958       -3.83910
C          5.97591       33.21267       -3.60611
C          8.51013       34.43921       -2.39110
H          5.51967       36.81039       -5.37747
H          7.06757       34.32413       -6.16350
H          5.99390       35.34274       -3.48063
H          8.43867       35.63917       -4.17631
H          8.56361       33.86284       -4.44935
H          6.45367       32.37837       -4.15019
H          6.12669       33.07671       -2.51759
H          4.87654       33.16410       -3.75376
H          8.24154       33.42768       -2.02283
H          9.61774       34.51180       -2.33959
H          8.06589       35.21088       -1.73117
N          5.05452       33.05813       -6.87256
C          3.92737       32.34162       -7.45283
C          3.63300       31.11043       -6.61764
O          4.27208       30.93331       -5.59416
C          4.26518       31.95726       -8.90889
C          4.55295       33.16295       -9.75741
O          5.58217       33.97663       -9.45506
O          3.86676       33.39833      -10.73849
H          5.97954       32.62570       -6.99873
H          3.00989       32.97081       -7.43775
H          3.41655       31.40014       -9.35810
H          5.15800       31.29369       -8.92434
N          2.63053       30.24767       -6.94047
C          2.22554       29.16065       -6.05480
C          3.33335       28.11971       -5.82353
O          3.67215       27.93618       -4.66387
C          0.88459       28.54694       -6.51615
C          0.30649       27.59243       -5.50156
C         -0.06661       28.05499       -4.22605
C          0.11140       26.23954       -5.82454
C         -0.62385       27.17877       -3.29240
C         -0.44547       25.36558       -4.88564
C         -0.81374       25.83494       -3.62156
H          2.07845       30.42622       -7.79371
H          2.00326       29.63245       -5.07129
H          0.98298       28.05346       -7.49366
H          0.14434       29.36397       -6.65948
H          0.06282       29.09534       -3.95539
H          0.38848       25.86133       -6.80076
H         -0.91247       27.54433       -2.31532
H         -0.59498       24.32454       -5.13945
H         -1.24892       25.15872       -2.89775
N          3.96365       27.40741       -6.81998
C          5.04783       26.45116       -6.57372
C          6.16284       27.02479       -5.72547
O          6.64365       26.36964       -4.81108
C          5.61535       26.17682       -7.97719
C          4.39090       26.30441       -8.83843
C          3.71966       27.54043       -8.24390
H          4.62892       25.52121       -6.12856
H          6.29074       27.00432       -8.29743
H          6.17869       25.22286       -8.06715
H          4.58319       26.36068       -9.93093
H          3.74958       25.41726       -8.63034
H          4.18383       28.48829       -8.59647
H          2.66457       27.49194       -8.54503
N          6.61543       28.27286       -6.00931
C          7.73280       28.93391       -5.35327
C          7.47635       29.03157       -3.85680
O          8.29995       28.57026       -3.08016
C          7.95975       30.33311       -5.98253
C          8.19074       30.27828       -7.51654
C          8.40175       31.63035       -8.13115
O          8.50769       32.73276       -7.37174
O          8.44812       31.73644       -9.34452
H          6.10740       28.77997       -6.74433
H          8.66023       28.34258       -5.52486
H          8.83622       30.81013       -5.49140
H          7.06660       30.95959       -5.79580
H          7.30739       29.86013       -8.03193
H          9.05252       29.62732       -7.76295
N          6.31877       29.57696       -3.39210
C          5.95280       29.66343       -1.99445
H          5.01934       29.08326       -1.82862
H          6.74108       29.26589       -1.32401
H          5.75690       30.72309       -1.73047
H          5.63426       29.92158       -4.06624
Ca         8.13768       34.93598      -10.46425
O         10.46775       34.91442       -7.00262
H         11.15652       35.34889       -6.44109
H          9.69308       34.80898       -6.39776
O         10.97382       36.63225       -9.36138
H         11.75137       36.79051       -9.95373
H         11.07025       37.29100       -8.63078

Ca 1.0



