%chk=holoCaM.loop3.water2.frame182.chk
%nprocshared=20
%mem=10GB
%nosave
#b3lyp/svp scf=(tight,noincore,xqc) Test 
#IOP(5/87=12) Density=Current Pop=(MK,readradii) iop(6/33=2) iop(6/42=6)

holoCaM.loop3.water2.frame182 

   0  1 
C         35.95745       57.84065       87.38269
C         36.81717       58.95044       86.87246
O         37.86141       58.68161       86.29446
H         34.96674       57.88976       86.88487
H         36.42351       56.85594       87.16848
H         35.82672       57.94978       88.47946
N         36.43313       60.24136       87.06475
C         37.20286       61.37357       86.59077
C         37.71222       62.13977       87.79618
O         37.05895       63.06547       88.25826
C         36.33831       62.20506       85.62228
C         37.13687       63.23496       84.88977
O         38.44691       63.37419       85.14221
O         36.59610       63.94227       84.06060
H         35.55684       60.43204       87.57588
H         38.08137       61.02421       86.00993
H         35.49369       62.68516       86.16184
H         35.92235       61.52596       84.84836
N         38.84615       61.71056       88.42034
C         39.35921       62.29610       89.65558
C         39.81489       63.72555       89.40748
O         39.28239       64.63577       90.02738
C         40.49664       61.43095       90.25826
C         40.02088       59.98400       90.53160
C         41.00004       59.13518       91.35525
C         42.37222       58.93628       90.69633
N         43.20702       58.05413       91.51383
H         39.33872       60.90505       88.00801
H         38.54016       62.29778       90.41080
H         40.80023       61.89544       91.22208
H         41.37807       61.40996       89.58291
H         39.81610       59.45558       89.57682
H         39.07175       60.02334       91.10865
H         40.53122       58.13628       91.49946
H         41.13523       59.60113       92.35472
H         42.88256       59.91732       90.58667
H         42.24546       58.48674       89.68647
H         43.32855       58.45670       92.47184
H         42.76573       57.10816       91.58636
H         44.14690       57.95406       91.06747
N         40.77358       63.99284       88.47194
C         41.21119       65.34855       88.11101
C         40.06775       66.24387       87.59236
O         40.27772       67.44572       87.50476
C         42.40921       65.33194       87.11135
C         42.08700       64.61298       85.82849
O         41.91834       65.27826       84.67727
O         41.83219       63.42004       85.84037
H         41.20608       63.18056       88.01887
H         41.57777       65.82672       89.04661
H         43.28905       64.83803       87.57615
H         42.69159       66.38322       86.88541
N         38.82382       65.75557       87.30584
C         37.65052       66.59343       87.08683
C         37.60798       67.43232       85.82366
O         36.64435       68.17568       85.69556
H         38.65731       64.74661       87.36009
H         37.54704       67.27095       87.96322
H         36.74800       65.94317       87.06868
N         38.56693       67.40100       84.85163
C         38.51510       68.29446       83.68948
C         37.30381       68.07299       82.77001
O         37.11563       68.88120       81.87208
C         39.85536       68.27962       82.89964
C         40.14081       67.06603       82.04411
N         41.31742       66.95859       81.38684
O         39.31332       66.18570       81.91674
H         39.38487       66.79664       84.98289
H         38.42994       69.32244       84.10646
H         40.68248       68.40146       83.63255
H         39.87520       69.15487       82.21694
H         42.03735       67.68944       81.47264
H         41.51006       66.13722       80.79306
N         36.45395       67.01074       82.91885
C         35.27210       66.78504       82.09235
C         35.36502       65.52791       81.24176
O         34.39716       65.23084       80.55483
H         36.63764       66.32018       83.65400
H         35.09429       67.63533       81.39905
H         34.38863       66.71235       82.76280
N         36.50693       64.78304       81.17493
C         36.70115       63.65608       80.26844
C         37.29906       62.44964       80.97525
O         37.84905       62.57594       82.05914
C         37.70783       64.08579       79.18317
C         37.16894       65.16085       78.27524
C         37.68592       66.46684       78.31831
C         36.16224       64.85026       77.34711
C         37.20388       67.44436       77.44155
C         35.69236       65.82461       76.46247
C         36.21393       67.12561       76.50528
O         35.77814       68.07206       75.64948
H         37.31503       65.07253       81.72859
H         35.73738       63.35298       79.80230
H         38.00863       63.22781       78.54339
H         38.62574       64.44525       79.70062
H         38.45960       66.73031       79.02902
H         35.75922       63.84649       77.29314
H         37.60799       68.44813       77.48252
H         34.92955       65.56457       75.73941
H         35.11274       67.88542       74.97161
N         37.26975       61.23765       80.35643
C         37.92645       60.03354       80.85436
C         38.84244       59.51746       79.75951
O         38.37514       59.27911       78.65310
C         36.87354       58.96562       81.26872
C         36.08365       59.48033       82.50235
C         37.55899       57.61644       81.59161
C         34.91205       58.58633       82.90910
H         36.75497       61.16344       79.46424
H         38.53511       60.25040       81.76053
H         36.17627       58.80576       80.41650
H         35.65736       60.48098       82.28009
H         36.77519       59.58684       83.36885
H         36.81916       56.83500       81.85111
H         38.10687       57.22690       80.70823
H         38.27934       57.73021       82.43016
H         34.39616       59.03704       83.78320
H         34.18852       58.50631       82.07073
H         35.24619       57.57351       83.20850
N         40.15584       59.27486       80.02279
C         41.09255       58.74160       79.04299
C         41.53474       57.33901       79.42336
O         41.16986       56.84601       80.48251
C         42.30509       59.68380       78.92296
O         43.02778       59.73559       80.12707
H         40.49765       59.44413       80.97494
H         40.60428       58.66943       78.04700
H         41.97483       60.70332       78.61756
H         42.99280       59.33078       78.12669
H         42.63979       60.46841       80.67209
N         42.31960       56.62656       78.56836
C         42.81514       55.28494       78.85243
C         43.74653       55.28607       80.04447
O         43.68161       54.36122       80.84181
C         43.56287       54.72327       77.63987
H         42.57119       57.05978       77.66601
H         41.95914       54.59834       79.04286
H         44.44009       55.35478       77.38484
H         43.91223       53.68972       77.85521
H         42.87972       54.68031       76.76483
N         44.64932       56.29395       80.22280
C         45.59054       56.32731       81.33457
C         44.86840       56.27292       82.66886
O         45.09580       55.33377       83.41954
C         46.47171       57.58358       81.25393
H         44.66791       57.06431       79.53630
H         46.26008       55.44188       81.25152
H         47.20978       57.59194       82.08387
H         47.02615       57.59832       80.29146
H         45.85947       58.50906       81.31236
N         43.99176       57.25018       83.03896
C         43.31996       57.24617       84.33888
C         42.31367       56.10966       84.50078
O         41.84085       55.91498       85.61204
C         42.63065       58.60308       84.60576
C         41.43928       58.87233       83.67290
C         40.87646       60.24244       83.91125
O         40.84259       61.06064       83.00672
O         40.40816       60.57743       85.12668
H         43.85517       58.04475       82.39791
H         44.11404       57.12924       85.11007
H         43.38975       59.40688       84.48105
H         42.27142       58.63278       85.65825
H         40.63758       58.12270       83.84709
H         41.77013       58.78657       82.62195
N         41.90161       55.35510       83.44130
C         40.92170       54.29221       83.54298
H         40.04778       54.53896       82.90331
H         41.37003       53.34244       83.18371
H         40.56253       54.14109       84.58222
H         42.26705       55.55145       82.50327
Ca        39.90169       64.62603       84.01396
O         41.11669       63.23303       80.76690
H         42.09063       63.35557       80.63720
H         40.76656       63.06186       79.85696
O         43.24086       62.71383       83.12959
H         43.71599       62.00495       82.62772
H         43.86822       62.97338       83.84968

Ca 1.0



