%chk=holoCaM.loop3.water3.frame355.chk
%nprocshared=20
%mem=10GB
%nosave
#b3lyp/svp scf=(tight,noincore,xqc) Test 
#IOP(5/87=12) Density=Current Pop=(MK,readradii) iop(6/33=2) iop(6/42=6)

holoCaM.loop3.water3.frame355 

   0  1 
C         -4.41919       32.98260       80.58884
C         -4.36537       33.72261       79.29067
O         -4.96822       34.78243       79.18693
H         -5.06127       33.52154       81.31847
H         -4.83645       31.96758       80.42466
H         -3.39363       32.90119       81.00409
N         -3.67178       33.20520       78.23699
C         -3.58684       33.88228       76.95470
C         -4.65168       33.31525       76.04508
O         -4.45493       32.26179       75.45503
C         -2.15704       33.76195       76.39224
C         -1.88682       34.66236       75.22168
O         -0.76378       34.70471       74.75854
O         -2.83844       35.46310       74.70970
H         -3.22688       32.27973       78.33898
H         -3.79684       34.96383       77.10803
H         -1.93660       32.70643       76.12026
H         -1.44179       34.04086       77.18794
N         -5.87278       33.92027       75.99560
C         -7.00640       33.37046       75.25686
C         -6.92957       33.69377       73.76932
O         -7.78917       33.23914       73.02773
C         -8.33431       33.88914       75.84810
C         -8.45520       33.54375       77.34419
C         -9.79146       34.01284       77.92807
C         -9.84752       33.86802       79.45998
N         -9.68093       32.48457       79.90881
H         -6.01837       34.76222       76.57343
H         -7.01358       32.26439       75.38693
H         -9.18125       33.41818       75.30167
H         -8.39711       34.99201       75.71653
H         -7.63961       34.04116       77.90823
H         -8.35744       32.44444       77.47339
H        -10.62354       33.44705       77.45473
H         -9.92721       35.09207       77.69741
H        -10.83297       34.24796       79.80837
H         -9.05640       34.50164       79.92022
H         -8.72219       32.13547       79.68327
H         -9.79519       32.45259       80.94765
H        -10.40228       31.87011       79.46754
N         -5.91959       34.45680       73.26241
C         -5.73734       34.75910       71.84708
C         -4.50982       34.04067       71.29472
O         -4.32267       34.05966       70.08603
C         -5.68448       36.28961       71.59887
C         -4.74741       37.02542       72.52396
O         -5.02240       37.12975       73.70907
O         -3.62733       37.61189       72.07209
H         -5.20194       34.80471       73.90476
H         -6.58887       34.35512       71.25682
H         -6.69439       36.72875       71.74920
H         -5.40051       36.46877       70.53913
N         -3.67013       33.32891       72.10026
C         -2.62284       32.45755       71.61199
C         -1.57368       33.14003       70.77814
O         -1.32289       32.67197       69.67623
H         -3.80023       33.32862       73.11867
H         -3.08316       31.63079       71.02765
H         -2.11131       32.00049       72.48782
N         -0.86391       34.19780       71.26200
C          0.32367       34.71564       70.58380
C          1.57443       34.51322       71.44260
O          2.65760       34.84322       70.98230
C          0.13018       36.18512       70.15069
C          0.21270       37.18425       71.27558
N          1.13944       38.17270       71.24502
O         -0.56175       37.10965       72.21345
H         -1.14153       34.60021       72.16896
H          0.48912       34.14624       69.64457
H         -0.84840       36.28584       69.63188
H          0.92081       36.43171       69.40985
H          1.80040       38.25807       70.45850
H          1.19564       38.86536       72.00412
N          1.49672       33.98982       72.70537
C          2.62831       33.77679       73.58682
C          2.74384       34.84496       74.66043
O          3.58949       34.68337       75.52884
H          0.59165       33.71712       73.09759
H          3.58406       33.75397       73.02251
H          2.50258       32.77815       74.06060
N          2.01366       36.00237       74.62032
C          2.22927       37.11830       75.53828
C          0.91933       37.63181       76.08926
O          0.01916       37.88777       75.30088
C          2.89174       38.31408       74.81525
C          4.19750       37.97015       74.14533
C          4.20834       37.19192       72.97667
C          5.41382       38.44418       74.66246
C          5.41020       36.87800       72.34332
C          6.61930       38.12691       74.02872
C          6.62018       37.34085       72.86636
O          7.77318       37.02876       72.24255
H          1.35311       36.15441       73.84540
H          2.91815       36.83624       76.36561
H          3.06567       39.09713       75.58844
H          2.21793       38.75869       74.05491
H          3.28431       36.83681       72.54662
H          5.43156       39.05223       75.55859
H          5.39753       36.27729       71.44273
H          7.55046       38.49337       74.44108
H          8.63219       37.33052       72.56956
N          0.78702       37.94106       77.41078
C         -0.37294       38.66739       77.92916
C          0.04942       40.04580       78.40154
O          1.23893       40.30617       78.53516
C         -1.12940       37.85859       79.02326
C         -0.24167       37.55722       80.26237
C         -1.66806       36.57389       78.38888
C         -0.95980       36.76733       81.36170
H          1.57503       37.74547       78.04682
H         -1.09443       38.85644       77.10481
H         -2.00633       38.45720       79.35704
H          0.09424       38.51992       80.70363
H          0.65627       36.97524       79.96757
H         -2.31637       36.01061       79.08825
H         -2.28621       36.81814       77.49957
H         -0.81680       35.93707       78.07839
H         -1.87028       37.30428       81.70033
H         -1.23732       35.75119       81.01212
H         -0.27723       36.63627       82.22780
N         -0.89270       41.00204       78.62489
C         -0.58300       42.35135       79.08293
C         -1.26999       42.60716       80.40603
O         -1.99937       41.74839       80.87408
C         -1.02100       43.37888       78.02033
O         -2.40765       43.32838       77.80279
H         -1.88267       40.76376       78.45704
H          0.51038       42.47261       79.24142
H         -0.46326       43.20246       77.07035
H         -0.75787       44.40918       78.34005
H         -2.55841       42.79548       76.97914
N         -1.08062       43.77212       81.07925
C         -1.79105       44.08891       82.31373
C         -3.28431       44.18164       82.05404
O         -4.05750       43.64127       82.83161
C         -1.28315       45.40515       82.90175
H         -0.42071       44.46407       80.69015
H         -1.58920       43.30483       83.07903
H         -0.19718       45.31616       83.12156
H         -1.44481       46.24818       82.19855
H         -1.81065       45.61792       83.85694
N         -3.74947       44.80919       80.93382
C         -5.16340       44.91261       80.58210
C         -5.84016       43.55422       80.60452
O         -6.84134       43.40912       81.29233
C         -5.31421       45.55408       79.19536
H         -3.05603       45.20379       80.27914
H         -5.67245       45.57443       81.31765
H         -4.81924       44.93526       78.41587
H         -6.38860       45.66345       78.93515
H         -4.84990       46.56356       79.19025
N         -5.32157       42.50105       79.91282
C         -5.90081       41.15857       79.95041
C         -5.95993       40.65046       81.38270
O         -7.04877       40.36881       81.86307
C         -5.07961       40.18657       79.07335
C         -5.18213       40.53707       77.58036
C         -4.29455       39.65499       76.75352
O         -3.32473       40.20536       76.00091
O         -4.44819       38.44410       76.75065
H         -4.46103       42.66145       79.36891
H         -6.93945       41.19404       79.55022
H         -5.45887       39.14948       79.20921
H         -4.01681       40.21062       79.39732
H         -4.88120       41.59074       77.40657
H         -6.23469       40.41745       77.24346
N         -4.82713       40.53056       82.12720
C         -4.80415       40.09311       83.50703
H         -4.36686       40.89775       84.13584
H         -5.81662       39.85648       83.89399
H         -4.16788       39.18787       83.59420
H         -3.92843       40.77174       81.70339
Ca        -2.37450       38.54818       73.70980
O         -0.47919       40.77131       74.60487
H          0.50107       40.65569       74.67603
H         -0.78886       40.82517       75.54305
O         -4.61212       40.32969       73.27141
H         -4.46336       41.29878       73.13808
H         -5.23250       40.06605       72.54674
O         -1.62977       40.37870       71.60154
H         -2.07869       40.19425       70.73896
H         -0.67080       40.46364       71.37273

Ca 1.0



