%chk=holoCaM-CaMKII.loop3.water2.frame138.chk
%nprocshared=20
%mem=10GB
%nosave
#b3lyp/svp scf=(tight,noincore,xqc) Test 
#IOP(5/87=12) Density=Current Pop=(MK,readradii) iop(6/33=2) iop(6/42=6)

holoCaM-CaMKII.loop3.water2.frame138 

   0  1 
C         31.55725       30.66475       75.61218
C         32.80039       29.97065       76.07662
O         32.69944       28.86860       76.59631
H         30.87686       30.82237       76.47490
H         31.79243       31.65216       75.16182
H         31.04966       30.03898       74.84940
N         34.01368       30.57562       75.94367
C         35.26690       29.98551       76.38172
C         35.70489       30.75741       77.60124
O         36.61593       31.57121       77.53783
C         36.27911       29.99824       75.21728
C         37.63381       29.37733       75.49094
O         38.56674       29.72174       74.78470
O         37.84660       28.40488       76.41128
H         34.05233       31.52913       75.55171
H         35.10058       28.95027       76.68306
H         36.44663       31.06154       74.93952
H         35.85190       29.49683       74.32444
N         35.01065       30.56978       78.75680
C         35.23441       31.33136       79.97707
C         36.66251       31.11927       80.45580
O         37.40677       32.08674       80.53854
C         34.18992       30.95076       81.06534
C         32.73294       31.16124       80.58093
C         31.69575       30.79468       81.65272
C         30.25201       30.78640       81.10548
N         29.83512       32.08416       80.57159
H         34.27687       29.84828       78.74566
H         35.08303       32.41136       79.74945
H         34.36439       31.58050       81.96564
H         34.31611       29.88533       81.35486
H         32.52468       30.51665       79.70541
H         32.59753       32.22049       80.27662
H         31.77937       31.49635       82.51031
H         31.90371       29.76611       82.02134
H         29.56614       30.49610       81.93204
H         30.15959       30.01600       80.30663
H         28.82940       32.02604       80.29016
H         29.94247       32.82750       81.29835
H         30.39054       32.32711       79.72044
N         37.12249       29.86818       80.75481
C         38.50035       29.60437       81.18086
C         39.55085       29.92167       80.11311
O         40.72195       29.99579       80.45966
C         38.68044       28.14932       81.66362
C         38.48178       27.12237       80.57551
O         39.39843       26.38083       80.26312
O         37.29184       26.98965       79.96186
H         36.44904       29.09264       80.70808
H         38.69249       30.26768       82.05478
H         37.96616       27.94303       82.48847
H         39.70918       28.04353       82.07499
N         39.21715       30.14094       78.81037
C         40.17056       30.59729       77.81194
C         41.18867       29.57826       77.33529
O         42.04413       29.98464       76.56074
H         38.23528       30.06523       78.52702
H         40.69363       31.49273       78.21160
H         39.61516       30.92626       76.90884
N         41.17108       28.25538       77.68736
C         42.17354       27.31547       77.16853
C         42.14981       27.17256       75.64176
O         43.08611       26.59572       75.10472
C         42.08378       25.92853       77.84725
C         40.80150       25.16395       77.61580
N         40.66661       23.92281       78.13509
O         39.88635       25.64803       76.96818
H         40.45322       27.91701       78.34233
H         43.16954       27.73276       77.43981
H         42.21800       26.05621       78.94287
H         42.92467       25.30274       77.47429
H         41.42810       23.49496       78.68138
H         39.80586       23.38092       77.98353
N         41.13599       27.67833       74.88018
C         41.13457       27.68620       73.42431
C         39.98908       26.90955       72.81043
O         39.85729       26.95285       71.59683
H         40.33093       28.11170       75.34535
H         42.07955       27.27704       73.00805
H         41.05273       28.74522       73.09793
N         39.13713       26.15621       73.56272
C         38.07971       25.34100       72.97209
C         36.90147       25.18059       73.91237
O         37.03163       25.40033       75.10491
C         38.60843       23.95261       72.53114
C         39.48604       23.28034       73.57141
C         40.81835       23.70700       73.73013
C         39.01552       22.21883       74.36321
C         41.66016       23.09554       74.65863
C         39.86143       21.61041       75.30241
C         41.18796       22.04696       75.44908
O         42.01828       21.46775       76.33995
H         39.29101       26.09213       74.57552
H         37.66081       25.87920       72.09313
H         39.21490       24.04874       71.60561
H         37.74165       23.30763       72.26398
H         41.21647       24.50614       73.12065
H         37.99660       21.86741       74.26227
H         42.68358       23.43616       74.75818
H         39.48833       20.79833       75.91352
H         41.73926       20.73587       76.90756
N         35.68664       24.82293       73.39791
C         34.49297       24.63280       74.21332
C         33.95557       23.22824       74.02049
O         34.13372       22.65030       72.95836
C         33.41050       25.72331       73.93115
C         32.87362       25.70947       72.47515
C         33.97665       27.10239       74.30252
C         31.71361       26.68959       72.24684
H         35.60288       24.69306       72.37912
H         34.75621       24.72677       75.28816
H         32.55137       25.52126       74.60528
H         32.48448       24.69620       72.24349
H         33.68778       25.94726       71.75798
H         34.82967       27.37141       73.64568
H         33.20671       27.89201       74.22325
H         34.32193       27.09212       75.35416
H         31.34061       26.59015       71.20601
H         30.87652       26.46924       72.94391
H         32.02919       27.74434       72.37913
N         33.24177       22.63778       75.01757
C         32.63181       21.31851       74.90147
C         31.12627       21.47321       74.86044
O         30.64224       22.58953       74.91515
C         33.08007       20.43406       76.08196
O         32.64361       20.96519       77.30742
H         33.08772       23.16359       75.88899
H         32.93774       20.81856       73.95769
H         34.18884       20.31463       76.06938
H         32.66383       19.40965       75.98430
H         33.41815       21.42417       77.72485
N         30.31340       20.38644       74.76177
C         28.85681       20.48946       74.79088
C         28.40061       21.14558       76.08044
O         27.59020       22.06087       76.03185
C         28.22775       19.10009       74.66954
H         30.74583       19.45339       74.69458
H         28.50205       21.08905       73.92209
H         27.11977       19.18552       74.67243
H         28.53860       18.63042       73.71198
H         28.54322       18.44762       75.51102
N         28.94471       20.76082       77.26924
C         28.60882       21.35618       78.55825
C         28.73400       22.86775       78.53130
O         27.78157       23.54701       78.88757
C         29.53331       20.78797       79.64532
H         29.66855       20.02469       77.24763
H         27.56124       21.09126       78.82194
H         30.59708       21.02313       79.42047
H         29.27816       21.21882       80.63652
H         29.42477       19.68420       79.70162
N         29.88230       23.46040       78.10773
C         30.07659       24.90787       78.08716
C         29.03289       25.58640       77.21238
O         28.32150       26.44867       77.70953
C         31.50511       25.25464       77.62374
C         32.55922       24.72227       78.61734
C         33.94156       25.09400       78.18771
O         34.75991       24.22941       77.92467
O         34.27800       26.38959       78.08356
H         30.64363       22.84612       77.78387
H         29.96767       25.30570       79.12110
H         31.60536       26.36051       77.55940
H         31.67917       24.83182       76.61379
H         32.49621       23.61799       78.69878
H         32.37945       25.15642       79.62345
N         28.85878       25.23028       75.91183
C         27.84440       25.82882       75.07161
H         26.83971       25.67658       75.52182
H         28.04005       26.91490       74.95357
H         27.85364       25.35150       74.06797
H         29.44464       24.49490       75.50787
Ca        36.24852       27.03259       77.22031
O         37.32075       23.17518       77.65847
H         37.44934       22.38709       78.24404
H         37.10842       22.79553       76.76959
O         36.41475       24.14644       80.50019
H         37.25102       23.79546       80.89727
H         35.99367       24.67090       81.22678

Ca 1.0



