%chk=holoCaM-CaMKII.loop2.water2.frame18.chk
%nprocshared=20
%mem=10GB
%nosave
#b3lyp/svp scf=(tight,noincore,xqc) Test 
#IOP(5/87=12) Density=Current Pop=(MK,readradii) iop(6/33=2) iop(6/42=6)

holoCaM-CaMKII.loop2.water2.frame18 

   -2  1 
C         43.82074       69.12492        8.88179
C         45.14476       68.68542        8.33109
O         46.09406       68.53296        9.08392
H         43.05392       68.35285        8.65700
H         43.87207       69.26842        9.98127
H         43.51883       70.08106        8.40468
N         45.26707       68.45370        6.99850
C         46.48914       67.98299        6.36092
C         47.65182       68.95706        6.54667
O         47.50999       70.13199        6.24065
C         46.20885       67.70849        4.86787
C         47.45086       67.25163        4.18493
O         47.84830       67.81167        3.17591
O         48.22938       66.35765        4.80882
H         44.42925       68.59393        6.41175
H         46.76695       67.00548        6.81709
H         45.81102       68.60991        4.35581
H         45.45072       66.90254        4.79943
N         48.85020       68.49711        7.02218
C         50.01769       69.32979        7.29030
C         51.24729       68.95251        6.45796
O         52.25660       69.62746        6.61443
C         50.36958       69.18752        8.77887
H         48.93691       67.49541        7.22447
H         49.78408       70.39575        7.08157
H         51.22873       69.83686        9.05122
H         49.50112       69.47088        9.40980
H         50.64144       68.13293        9.01079
N         51.27477       67.88966        5.59458
C         52.51849       67.43635        4.96146
C         52.34768       66.77203        3.58756
O         53.36205       66.43351        2.99255
C         53.27379       66.50513        5.94461
C         52.49038       65.28365        6.36291
O         52.53307       64.89779        7.51965
O         51.62011       64.71686        5.51270
H         50.45096       67.28504        5.55025
H         53.16875       68.31956        4.76902
H         53.50171       67.09267        6.86109
H         54.24735       66.18573        5.51987
N         51.13138       66.54559        3.01382
C         50.95508       65.91811        1.71376
C         51.51838       64.51560        1.66080
O         52.32879       64.23868        0.78806
H         50.27591       66.83395        3.49373
H         51.42096       66.54872        0.92541
H         49.86575       65.85423        1.49490
N         51.10751       63.57083        2.55194
C         51.52375       62.16969        2.50223
C         50.32359       61.24155        2.30298
O         50.49307       60.03190        2.37327
C         52.35314       61.79478        3.75100
C         51.63810       61.82561        5.07457
N         52.29627       61.44418        6.18844
O         50.47583       62.18380        5.15953
H         50.44325       63.85641        3.28553
H         52.20788       61.99434        1.64317
H         53.23422       62.47085        3.81267
H         52.73289       60.75944        3.61049
H         53.27733       61.13355        6.14714
H         51.81553       61.44888        7.09238
N         49.09079       61.73714        1.98626
C         47.92421       60.91455        1.71765
C         47.25771       60.31544        2.94079
O         46.24055       59.66466        2.74788
H         48.97841       62.74546        1.82358
H         48.18717       60.12150        0.98456
H         47.15307       61.56187        1.24610
N         47.72799       60.48436        4.21296
C         47.05319       59.92708        5.38393
C         46.72446       60.98248        6.42447
O         47.33826       62.03999        6.46132
C         47.92601       58.83571        6.05305
C         48.11948       57.62973        5.13664
O         49.18752       59.35077        6.40135
H         48.59515       61.00627        4.36258
H         46.08823       59.46144        5.08717
H         47.41195       58.44551        6.96409
H         49.08575       59.81343        7.27376
H         48.64486       57.92118        4.20354
H         48.72258       56.85727        5.65984
H         47.13305       57.18788        4.87899
N         45.80669       60.67165        7.38200
C         45.62082       61.41462        8.61801
C         46.66557       60.90330        9.59097
O         46.70705       59.71101        9.86194
C         44.15303       61.23516        9.12423
C         43.19667       62.02895        8.19206
C         43.98193       61.68820       10.59002
C         41.71483       61.70924        8.39813
H         45.36072       59.74281        7.32476
H         45.78962       62.50037        8.46580
H         43.90323       60.15136        9.08579
H         43.42330       61.79306        7.13066
H         43.36231       63.12058        8.33937
H         44.63370       61.08998       11.26050
H         44.23369       62.76225       10.70951
H         42.94580       61.51748       10.94513
H         41.37338       61.93662        9.42686
H         41.10867       62.32368        7.69824
H         41.52757       60.63770        8.17432
N         47.54060       61.77607       10.16184
C         48.55922       61.39521       11.12969
C         48.03764       61.64856       12.52380
O         46.90912       62.08076       12.66547
C         49.84283       62.21893       10.89644
C         50.45462       61.97351        9.55568
O         51.69935       61.46546        9.48475
O         49.85010       62.25607        8.53314
H         47.42765       62.77823        9.96831
H         48.79046       60.30952       11.05372
H         50.60252       61.94541       11.65665
H         49.62508       63.30490       11.00135
N         48.79542       61.36664       13.61572
C         48.32095       61.57760       14.97544
C         48.02854       63.05142       15.28552
O         46.92400       63.30947       15.74368
C         49.30101       60.95112       15.98819
C         48.70129       60.82871       17.37156
C         49.32004       61.42958       18.47944
C         47.52377       60.07861       17.56984
C         48.76920       61.28418       19.75829
C         46.97416       59.94379       18.84563
C         47.59695       60.54432       19.94024
H         49.72804       60.94932       13.47474
H         47.37192       61.00764       15.06475
H         50.25430       61.52003       15.99874
H         49.53361       59.91508       15.65819
H         50.23091       62.00137       18.35682
H         47.02713       59.59039       16.74132
H         49.25276       61.74217       20.61065
H         46.06778       59.36770       18.98414
H         47.17230       60.43162       20.92920
N         48.90815       64.08480       15.05488
C         48.60163       65.48295       15.35875
C         47.41344       65.99958       14.56264
O         46.71250       66.87730       15.04618
C         49.90469       66.22423       15.01201
C         50.49617       65.37065       13.91329
C         50.21504       63.96271       14.43156
H         48.38904       65.64171       16.43853
H         49.79644       67.30621       14.77769
H         50.60080       66.12470       15.87454
H         49.89921       65.54127       12.99278
H         51.56079       65.56828       13.66444
H         50.24981       63.29355       13.55792
H         50.95374       63.65476       15.20165
N         47.14169       65.51277       13.32683
C         46.04277       65.97924       12.49040
C         44.72056       65.51777       13.08357
O         43.83700       66.33495       13.29865
C         46.25393       65.47280       11.04534
C         47.61802       65.98047       10.50700
C         47.98771       65.46640        9.15385
O         49.10895       65.68446        8.72784
O         47.13440       64.72987        8.42387
H         47.75321       64.77134       12.96022
H         46.05904       67.09092       12.42355
H         45.43299       65.83741       10.38897
H         46.23669       64.36446       11.04379
H         48.43674       65.64495       11.16550
H         47.64101       67.09042       10.49778
N         44.54431       64.21188       13.42168
C         43.34322       63.69216       14.03408
H         42.48334       63.80238       13.34301
H         43.48047       62.61071       14.26035
H         43.14126       64.22201       14.98859
H         45.31265       63.55853       13.27298
Ca        49.42365       64.84030        5.92810
O         47.70171       63.75073        3.83781
H         48.00560       64.39789        3.15256
H         46.86718       63.37176        3.46730
O         45.48925       64.47083        5.90754
H         44.61758       64.91173        5.75381
H         45.36028       63.98549        6.75770

Ca 1.0



