%chk=holoCaM-CaMKII.loop2.water1.frame13.chk
%nprocshared=20
%mem=10GB
%nosave
#b3lyp/svp scf=(tight,noincore,xqc) Test 
#IOP(5/87=12) Density=Current Pop=(MK,readradii) iop(6/33=2) iop(6/42=6)

holoCaM-CaMKII.loop2.water1.frame13 

   -2  1 
C         61.78311       82.55932       14.78913
C         62.94542       82.49118       13.83716
O         64.06647       82.25717       14.26080
H         61.02946       81.79183       14.50426
H         62.10232       82.36227       15.83394
H         61.30656       83.56011       14.73450
N         62.72048       82.64280       12.50671
C         63.73831       82.47227       11.47455
C         64.77267       83.59202       11.44106
O         64.39771       84.74371       11.27100
C         63.03588       82.38136       10.10853
C         64.00867       82.18824        8.98862
O         64.03440       82.98703        8.06705
O         64.85714       81.14160        8.99888
H         61.74297       82.80011       12.21233
H         64.24228       81.49746       11.63234
H         62.44112       83.30394        9.92570
H         62.34096       81.51435       10.12220
N         66.10733       83.29479       11.49801
C         67.17419       84.27264       11.29284
C         68.09919       83.90769       10.12089
O         68.99863       84.69119        9.84846
C         68.00947       84.38012       12.57279
H         66.38398       82.31963       11.66744
H         66.74130       85.27424       11.07995
H         68.49113       83.40517       12.80467
H         68.80388       85.14933       12.45671
H         67.36487       84.67452       13.42716
N         67.98045       82.74108        9.41131
C         68.92218       82.32273        8.36541
C         68.26229       82.07538        7.00272
O         68.97501       81.73863        6.06686
C         69.70808       81.08716        8.86055
C         68.83796       79.94997        9.32150
O         68.92125       79.51407       10.59237
O         68.05896       79.41387        8.55695
H         67.23216       82.07912        9.65160
H         69.68050       83.11524        8.18195
H         70.33181       81.40250        9.72500
H         70.39688       80.73150        8.06392
N         66.93139       82.27535        6.79456
C         66.27505       82.17880        5.49521
C         66.16524       80.79209        4.87929
O         65.58529       80.71195        3.80497
H         66.36251       82.61234        7.57476
H         66.79252       82.85417        4.77947
H         65.23335       82.55047        5.60734
N         66.67449       79.66175        5.45244
C         66.58115       78.35087        4.80374
C         65.16487       77.75825        4.78381
O         65.00205       76.68255        4.22367
C         67.61833       77.35926        5.38131
C         67.43589       76.91529        6.80729
N         68.31452       76.02853        7.32925
O         66.51369       77.33352        7.48985
H         67.20145       79.74233        6.32691
H         66.90302       78.48136        3.74583
H         68.62715       77.81917        5.29186
H         67.61029       76.44377        4.75057
H         69.09823       75.67119        6.76396
H         68.21758       75.68566        8.29106
N         64.08714       78.40449        5.32214
C         62.71933       77.90993        5.21064
C         62.37477       76.73555        6.11062
O         61.23297       76.30368        6.06392
H         64.21097       79.32882        5.75473
H         62.50346       77.66211        4.14881
H         62.02817       78.72884        5.50658
N         63.27176       76.19722        6.98255
C         62.94901       75.13332        7.93462
C         63.13428       75.65493        9.35064
O         63.49525       76.80739        9.51518
C         63.84297       73.89763        7.65667
C         63.49921       73.27431        6.30240
O         65.20464       74.24520        7.66807
H         64.22543       76.57391        7.01161
H         61.88573       74.81927        7.85268
H         63.65430       73.09936        8.40949
H         65.46480       74.37622        8.61668
H         62.43258       72.96064        6.28919
H         63.67300       73.99499        5.47608
H         64.12753       72.37507        6.12958
N         62.92795       74.84835       10.43125
C         63.17029       75.29577       11.79780
C         64.47413       74.66258       12.23281
O         64.58731       73.44542       12.18986
C         61.99683       74.91664       12.75340
C         60.62835       75.37805       12.19016
C         62.24602       75.52972       14.15049
C         59.43807       74.90389       13.03299
H         62.66815       73.86274       10.28315
H         63.27751       76.40303       11.83136
H         61.96610       73.80800       12.84241
H         60.48943       74.93922       11.17943
H         60.59935       76.48523       12.09548
H         62.25660       76.64075       14.09307
H         61.47539       75.22035       14.88303
H         63.21372       75.19238       14.56254
H         59.43956       75.35952       14.04332
H         58.48982       75.19942       12.53769
H         59.45307       73.79685       13.13107
N         65.50686       75.43684       12.66803
C         66.75774       74.87727       13.15315
C         66.61664       74.65382       14.64258
O         65.61339       75.05653       15.20034
C         67.95366       75.79459       12.78957
C         68.23258       75.83069       11.29997
O         69.27542       75.35290       10.88237
O         67.35380       76.34298       10.40947
H         65.33148       76.43555       12.83256
H         66.92724       73.87311       12.70570
H         68.85956       75.38103       13.28232
H         67.79683       76.82479       13.17942
N         67.53247       73.94050       15.34998
C         67.33685       73.64073       16.76428
C         67.30558       74.88687       17.65024
O         66.38646       74.96685       18.45411
C         68.36560       72.62241       17.28756
C         68.05793       72.25614       18.72742
C         68.99371       72.52469       19.73882
C         66.82221       71.67183       19.07732
C         68.69761       72.22594       21.07257
C         66.52925       71.38085       20.41241
C         67.46569       71.65896       21.40962
H         68.35157       73.55290       14.85736
H         66.34964       73.13477       16.85205
H         69.38705       73.04672       17.19396
H         68.31946       71.70007       16.66796
H         69.94790       72.97449       19.49693
H         66.07660       71.45037       18.32438
H         69.42186       72.44087       21.84669
H         65.57341       70.94410       20.67421
H         67.23585       71.43613       22.44347
N         68.23132       75.89804       17.59986
C         68.18977       77.05793       18.48401
C         66.89876       77.84341       18.30181
O         66.32006       78.26601       19.29254
C         69.47240       77.82657       18.13074
C         69.70167       77.47682       16.68054
C         69.32779       75.99624       16.65070
H         68.26681       76.77516       19.55781
H         69.47148       78.90835       18.38346
H         70.31366       77.34635       18.68142
H         68.96676       78.05192       16.07912
H         70.71222       77.70418       16.27913
H         69.05353       75.77592       15.60610
H         70.15699       75.34115       16.99253
N         66.34706       78.00172       17.07124
C         65.07231       78.67357       16.82407
C         63.94868       77.93214       17.53255
O         63.15367       78.56138       18.21574
C         64.82225       78.77943       15.30035
C         65.94823       79.61570       14.65435
C         65.91492       79.67854       13.16531
O         66.90215       80.10005       12.58641
O         64.89910       79.19628       12.43154
H         66.83502       77.57202       16.27509
H         65.11112       79.71834       17.20604
H         63.84406       79.27019       15.10293
H         64.80105       77.75962       14.85636
H         66.92539       79.14922       14.88031
H         65.97254       80.64395       15.07112
N         63.87105       76.57613       17.46868
C         62.87374       75.79867       18.16759
H         61.86335       76.03830       17.77957
H         63.06959       74.71436       18.01114
H         62.92535       76.00512       19.25769
H         64.57973       76.06636       16.94167
Ca        65.71815       77.78404       10.91759
O         63.08908       79.16873        8.26820
H         62.80139       79.93568        7.71452
H         62.39652       79.09632        8.97123

Ca 1.0



