%chk=holoCaM.loop4.water3.frame375.chk
%nprocshared=20
%mem=10GB
%nosave
#b3lyp/svp scf=(tight,noincore,xqc) Test 
#IOP(5/87=12) Density=Current Pop=(MK,readradii) iop(6/33=2) iop(6/42=6)

holoCaM.loop4.water3.frame375 

   -3  1 
C          2.62603       76.16894       52.70904
C          2.31862       75.22394       51.58706
O          2.02871       75.69823       50.50015
H          3.48980       76.80651       52.42293
H          1.74518       76.81862       52.89646
H          2.87857       75.62663       53.64293
N          2.35184       73.87144       51.77393
C          2.07128       72.91557       50.70408
C          2.04761       71.49462       51.26342
O          3.02923       71.08944       51.87193
C          3.13983       73.01096       49.58624
C          2.74768       72.24721       48.35186
O          3.51674       72.18814       47.40650
O          1.53008       71.68331       48.24969
H          2.56577       73.51676       52.71896
H          1.07811       73.16832       50.27565
H          4.11259       72.63846       49.97472
H          3.28877       74.05746       49.25606
N          0.96276       70.68185       51.08453
C          0.86091       69.33512       51.65292
C          0.82310       68.23069       50.59491
O          0.89991       67.07601       50.99346
C         -0.38379       69.22774       52.59622
C         -1.71875       69.36866       51.80555
C         -0.27482       70.25325       53.73946
C         -2.97927       69.22961       52.65705
H          0.17740       71.04156       50.53293
H          1.76736       69.12731       52.26342
H         -0.37385       68.21768       53.06404
H         -1.76253       68.57466       51.03008
H         -1.77475       70.34822       51.29895
H         -0.31030       71.28852       53.34931
H         -1.09434       70.12413       54.47549
H          0.67958       70.11350       54.28886
H         -3.05363       70.06012       53.38468
H         -3.87292       69.28506       51.99848
H         -2.98796       68.25763       53.19205
N          0.66083       68.47621       49.25697
C          0.47386       67.39066       48.28681
C          1.06798       67.65237       46.89447
O          0.96208       66.76425       46.05977
C         -1.02873       67.03380       48.19887
C         -1.91588       68.13931       47.69982
O         -1.45844       69.22600       47.39356
O         -3.23987       67.92348       47.59136
H          0.48074       69.44158       48.95953
H          0.98561       66.47665       48.66147
H         -1.38624       66.74236       49.20996
H         -1.15857       66.15682       47.52940
N          1.71221       68.80803       46.55934
C          2.29949       69.04993       45.24599
C          1.26336       69.07769       44.13762
O          1.35232       68.27745       43.21811
H          1.83523       69.54121       47.26185
H          3.06548       68.27071       45.04172
H          2.81392       70.03609       45.25587
N          0.25127       69.98807       44.17191
C         -0.81766       70.08875       43.16717
C         -0.94481       71.48348       42.54492
O         -1.83867       71.67059       41.73029
C         -2.16642       69.65732       43.79130
C         -2.59565       70.46368       44.98810
O         -1.82517       71.46858       45.44464
O         -3.60364       70.14540       45.59496
H          0.23850       70.61466       44.98516
H         -0.62508       69.38209       42.33038
H         -2.06267       68.59989       44.12031
H         -2.96711       69.69299       43.02080
N         -0.09269       72.50334       42.84908
C         -0.18608       73.83142       42.25327
C         -1.36531       74.67755       42.71590
O         -1.45552       75.80642       42.25206
H          0.70414       72.32421       43.47125
H         -0.19731       73.73577       41.14632
H          0.72708       74.40124       42.53205
N         -2.27737       74.24865       43.63646
C         -3.36133       75.08126       44.15734
C         -3.18203       75.29349       45.65283
O         -2.24984       74.74632       46.23021
C         -4.72909       74.42199       43.87431
C         -4.99327       74.24817       42.37270
C         -6.37095       73.68207       42.13315
N         -6.53570       72.49459       41.50536
O         -7.35254       74.30882       42.50489
H         -2.19431       73.30272       44.01818
H         -3.35140       76.08743       43.68290
H         -5.53474       75.06315       44.29243
H         -4.78000       73.42994       44.37664
H         -4.22106       73.57694       41.93966
H         -4.92637       75.23357       41.86296
H         -5.72449       71.94847       41.18175
H         -7.48165       72.11803       41.34257
N         -4.04202       76.09273       46.34718
C         -3.93875       76.33800       47.78045
C         -5.18250       75.80134       48.46190
O         -6.28809       76.16698       48.08310
C         -3.72130       77.84627       48.07542
C         -3.59494       78.10126       49.59091
C         -2.44401       78.35221       47.38509
H         -4.81213       76.55724       45.84023
H         -3.05787       75.81431       48.19795
H         -4.58638       78.42914       47.68949
H         -4.51828       77.79743       50.12535
H         -2.73719       77.53457       50.01449
H         -3.43432       79.18188       49.79105
H         -1.55502       77.79395       47.75139
H         -2.51407       78.22779       46.28463
H         -2.29333       79.43222       47.59671
N         -5.05705       74.95353       49.51813
C         -6.17168       74.38256       50.25999
C         -6.27053       75.06799       51.61111
O         -5.44438       75.90909       51.92194
C         -5.91045       72.85974       50.37754
C         -6.93407       72.04210       51.12055
N         -8.20358       71.94091       50.66825
O         -6.60165       71.43368       52.12738
H         -4.10978       74.73560       49.85811
H         -7.13031       74.56763       49.72766
H         -4.92251       72.71306       50.87114
H         -5.85465       72.44881       49.35358
H         -8.49910       72.42996       49.81202
H         -8.88788       71.35790       51.17078
N         -7.30785       74.80117       52.44173
C         -7.47153       75.38786       53.77116
C         -6.34105       74.98929       54.72197
O         -5.78811       75.88159       55.35154
C         -8.91284       75.16187       54.31000
C         -9.51493       73.79735       54.04258
C        -10.51983       73.67878       53.05987
C         -9.08952       72.64854       54.71939
C        -11.06721       72.43656       52.74595
C         -9.64299       71.39953       54.40599
C        -10.62731       71.28896       53.41499
O        -11.13908       70.07977       53.10888
H         -8.03022       74.16573       52.08502
H         -7.40636       76.49832       53.68726
H         -9.53345       75.89089       53.74155
H         -9.00638       75.45942       55.37616
H        -10.86786       74.54789       52.51414
H         -8.33503       72.72255       55.48616
H        -11.82514       72.36895       51.97481
H         -9.30267       70.51528       54.92856
H        -11.80730       69.96679       52.41680
N         -5.88168       73.70654       54.83103
C         -4.74283       73.33488       55.68800
C         -3.40566       73.96159       55.26126
O         -2.42152       73.72276       55.94874
C         -4.55953       71.79616       55.73112
C         -5.71852       71.04487       56.40372
C         -5.87712       71.44171       57.84668
O         -4.86031       71.26364       58.71290
O         -6.92634       71.92504       58.24031
H         -6.35153       72.97416       54.28163
H         -4.94690       73.68618       56.72313
H         -3.63984       71.54131       56.30427
H         -4.42549       71.42060       54.69548
H         -5.50454       69.95539       56.36879
H         -6.65920       71.21924       55.84781
N         -3.28365       74.78599       54.18245
C         -2.03539       75.41663       53.77124
C         -2.09900       76.89601       54.09641
O         -1.26022       77.37015       54.84933
C         -1.81264       75.22112       52.26011
C         -1.77871       73.74629       51.84510
C         -1.66659       73.58756       50.35607
O         -1.72796       72.36261       49.82026
O         -1.54181       74.55161       49.62163
H         -4.10903       75.00751       53.62756
H         -1.16895       74.97812       54.31600
H         -0.86095       75.71240       51.95797
H         -2.64635       75.70519       51.70818
H         -2.72291       73.25306       52.15953
H         -0.92399       73.23611       52.33216
N         -3.08241       77.68319       53.57405
C         -3.22687       79.09458       53.85584
H         -4.21808       79.26985       54.32528
H         -2.43984       79.47291       54.53962
H         -3.17769       79.66334       52.90376
H         -3.78039       77.27008       52.94721
Ca        -1.64542       72.06253       47.59929
O          0.53958       75.27325       47.63495
H          0.47979       75.59072       48.56718
H          0.11805       75.99270       47.10272
O         -4.09294       71.13941       48.34747
H         -4.21419       70.19700       48.61807
H         -4.72479       71.27697       47.59787
O          0.70356       73.29342       45.76588
H          1.10318       74.05040       45.26841
H          1.39912       72.59068       45.74079

Ca 1.0



