%chk=holoCaM.loop2.water3.frame488.chk
%nprocshared=20
%mem=10GB
%nosave
#b3lyp/svp scf=(tight,noincore,xqc) Test 
#IOP(5/87=12) Density=Current Pop=(MK,readradii) iop(6/33=2) iop(6/42=6)

holoCaM.loop2.water3.frame488 

   -2  1 
C         -9.37969       60.49558       36.82524
C        -10.45520       60.22530       37.83010
O        -10.15690       59.72971       38.90817
H         -8.38859       60.18545       37.21965
H         -9.59188       59.91834       35.90070
H         -9.35280       61.57852       36.58554
N        -11.75071       60.52246       37.53521
C        -12.84077       60.24238       38.45676
C        -12.92892       58.73888       38.68661
O        -13.11435       58.00146       37.73037
C        -14.17815       60.76457       37.88529
C        -15.32266       60.62946       38.85260
O        -15.12823       60.22864       40.11864
O        -16.44718       60.92068       38.49887
H        -11.96034       60.95914       36.62350
H        -12.64092       60.78820       39.40777
H        -14.41862       60.20677       36.95392
H        -14.08852       61.84258       37.62710
N        -12.77093       58.21705       39.93293
C        -12.84423       56.78904       40.23256
C        -14.25091       56.19070       40.11134
O        -14.36463       54.98378       40.27491
C        -12.30664       56.53110       41.64477
H        -12.52015       58.86611       40.68422
H        -12.16928       56.25808       39.52539
H        -12.94408       57.02974       42.40457
H        -12.27719       55.44111       41.85611
H        -11.27081       56.92534       41.72852
N        -15.35420       56.93773       39.80460
C        -16.68452       56.36933       39.58518
C        -17.05234       56.41727       38.10359
O        -18.09722       55.89498       37.74112
C        -17.74881       57.13666       40.40202
C        -17.46643       57.13482       41.87703
O        -17.32833       58.18982       42.47448
O        -17.39411       55.97373       42.55404
H        -15.25074       57.94256       39.65417
H        -16.69944       55.29894       39.88547
H        -18.74647       56.67190       40.24271
H        -17.80142       58.18929       40.04034
N        -16.24429       57.03040       37.18965
C        -16.51680       57.12801       35.76968
C        -17.80842       57.85521       35.51559
O        -18.64685       57.33838       34.79138
H        -15.38424       57.48600       37.49720
H        -16.52623       56.11676       35.30854
H        -15.69406       57.71151       35.29953
N        -18.04966       59.04743       36.13086
C        -19.30171       59.78335       36.00240
C        -19.09243       61.24094       35.58036
O        -20.03416       61.80934       35.04533
C        -20.07433       59.64359       37.33262
C        -21.40451       60.35935       37.36005
N        -22.56570       59.66820       37.43119
O        -21.43442       61.58051       37.34148
H        -17.34135       59.39033       36.79129
H        -19.92881       59.31082       35.21268
H        -19.45700       60.01250       38.17856
H        -20.23977       58.55417       37.49512
H        -22.57273       58.63831       37.44936
H        -23.46651       60.16894       37.45804
N        -17.91945       61.91816       35.77774
C        -17.70851       63.29636       35.35008
C        -17.38950       64.26564       36.48101
O        -17.12264       65.41689       36.16705
H        -17.12141       61.45254       36.22116
H        -18.59459       63.69682       34.81215
H        -16.85776       63.29834       34.63681
N        -17.42047       63.91081       37.80081
C        -17.15669       64.84375       38.90122
C        -16.00850       64.32149       39.75895
O        -16.04820       63.16359       40.14606
C        -18.43888       65.01485       39.74757
C        -18.27070       66.12912       40.78759
O        -19.51742       65.36577       38.91811
H        -17.69167       62.95169       38.05081
H        -16.89533       65.85123       38.50845
H        -18.66996       64.06434       40.28390
H        -19.92175       64.51996       38.59022
H        -17.41456       65.93375       41.45935
H        -18.08823       67.10153       40.28208
H        -19.19152       66.21612       41.40189
N        -14.97474       65.12990       40.13818
C        -13.80904       64.64822       40.88307
C        -13.86546       65.13597       42.33417
O        -14.03243       66.32651       42.56090
C        -12.48645       65.09880       40.17727
C        -12.50370       64.75337       38.66255
C        -11.27051       64.44663       40.86723
C        -11.24232       65.19422       37.91008
H        -15.00998       66.13065       39.88874
H        -13.79951       63.53590       40.89082
H        -12.39594       66.20451       40.26937
H        -13.35761       65.28110       38.18633
H        -12.64264       63.66126       38.51708
H        -10.31356       64.81422       40.44721
H        -11.24550       64.70292       41.93976
H        -11.30921       63.34122       40.75819
H        -11.06194       66.28128       38.05187
H        -10.35090       64.62539       38.24455
H        -11.36815       64.99425       36.82537
N        -13.65646       64.25925       43.36504
C        -13.57502       64.62778       44.77869
C        -12.11997       64.70963       45.19442
O        -11.25202       64.43904       44.37960
C        -14.24752       63.55261       45.66947
C        -15.72150       63.41378       45.47241
O        -16.19856       62.33478       45.16422
O        -16.53566       64.45646       45.71900
H        -13.39772       63.29787       43.12748
H        -14.03160       65.62667       44.95185
H        -14.11258       63.81134       46.73859
H        -13.75053       62.57072       45.49060
N        -11.76603       65.09611       46.45152
C        -10.37671       65.15512       46.88174
C         -9.74358       63.76109       46.93751
O         -8.69677       63.61267       46.32489
C        -10.21725       65.97120       48.18273
C         -8.76766       66.10897       48.59815
C         -7.80634       66.64523       47.71707
C         -8.36296       65.70451       49.88146
C         -6.47020       66.75570       48.10948
C         -7.02665       65.82965       50.27350
C         -6.08052       66.34991       49.38697
H        -12.50493       65.38948       47.11023
H         -9.82623       65.74833       46.11876
H        -10.81306       65.54112       49.00758
H        -10.62079       66.99063       47.99649
H         -8.07897       66.97310       46.72304
H         -9.08156       65.29808       50.58199
H         -5.73710       67.15785       47.42177
H         -6.72427       65.52171       51.26555
H         -5.04575       66.44087       49.69005
N        -10.29645       62.67736       47.58808
C         -9.69765       61.33926       47.59013
C         -9.47589       60.71477       46.21824
O         -8.89467       59.63920       46.15733
C        -10.72123       60.47600       48.33643
C        -11.34367       61.47054       49.28203
C        -11.50563       62.69266       48.38141
H         -8.73374       61.41707       48.14087
H        -11.53471       60.17792       47.63226
H        -10.30303       59.55488       48.79660
H        -12.28054       61.12913       49.77096
H        -10.58824       61.70483       50.06646
H        -12.37451       62.58064       47.70110
H        -11.62057       63.57454       49.03211
N         -9.91270       61.31977       45.07999
C         -9.69676       60.80364       43.74276
C         -8.53159       61.55998       43.12926
O         -7.59484       60.92097       42.67232
C        -11.00039       60.89364       42.91925
C        -12.14667       60.11513       43.60133
C        -13.36840       59.97897       42.69819
O        -13.86940       61.21324       42.29107
O        -14.40395       59.29418       43.34256
H        -10.41285       62.21143       45.13984
H         -9.40967       59.72817       43.77279
H        -10.80333       60.46016       41.91428
H        -11.30771       61.95394       42.78821
H        -12.42995       60.60931       44.55568
H        -11.80198       59.08275       43.82334
N         -8.47256       62.92181       43.18298
C         -7.32547       63.69740       42.75730
H         -6.52382       63.06703       42.32056
H         -7.64255       64.45162       42.00917
H         -6.90288       64.22781       43.63942
H         -9.24586       63.44469       43.60426
Ca       -16.02657       60.80585       42.84524
O        -17.21266       63.70466       42.79181
H        -18.19043       63.84380       42.73773
H        -16.86519       64.54823       43.17516
O        -18.88352       61.16651       43.77085
H        -19.07983       60.93518       44.71263
H        -19.47874       61.93227       43.57281
O        -18.81635       61.21695       40.80984
H        -18.45298       61.51757       39.94150
H        -19.79775       61.27395       40.69523

Ca 1.0



