%chk=holoCaM-CaMKII.loop3.water2.frame48.chk
%nprocshared=20
%mem=10GB
%nosave
#b3lyp/svp scf=(tight,noincore,xqc) Test 
#IOP(5/87=12) Density=Current Pop=(MK,readradii) iop(6/33=2) iop(6/42=6)

holoCaM-CaMKII.loop3.water2.frame48 

   0  1 
C         18.78912       45.33523        4.58305
C         19.46784       44.00886        4.72802
O         18.93677       43.12801        5.39009
H         17.82477       45.34718        5.13300
H         19.44748       46.13086        4.99069
H         18.59514       45.53665        3.50845
N         20.66203       43.79488        4.11390
C         21.37746       42.53106        4.20339
C         21.79657       42.28160        5.64488
O         22.52931       43.08544        6.20517
C         22.58835       42.56508        3.26220
C         23.27740       41.24621        3.13082
O         24.24938       41.17351        2.40966
O         22.84012       40.14337        3.76758
H         21.05887       44.55895        3.54360
H         20.69705       41.72662        3.84528
H         23.31406       43.33247        3.61133
H         22.24495       42.84774        2.24239
N         21.30571       41.20796        6.32285
C         21.51830       41.00137        7.75518
C         22.97498       40.69075        8.11527
O         23.33745       40.80108        9.27743
C         20.58796       39.86048        8.22300
C         20.38919       39.79391        9.73861
C         19.43560       38.64656       10.09328
C         19.08883       38.66044       11.58499
N         18.23213       37.52708       11.93009
H         20.67472       40.56993        5.81523
H         21.20389       41.94437        8.25434
H         20.96168       38.89073        7.82287
H         19.57794       40.04324        7.79280
H         19.94825       40.76001       10.07001
H         21.35240       39.63614       10.26524
H         19.91873       37.68159        9.82289
H         18.49015       38.74423        9.51413
H         18.55857       39.61007       11.82402
H         20.01990       38.61395       12.19127
H         18.74526       36.63111       11.76242
H         17.97746       37.58710       12.94217
H         17.35680       37.54447       11.35757
N         23.83314       40.20480        7.17768
C         25.19861       39.74709        7.45187
C         26.18378       40.15023        6.34185
O         27.33944       39.75637        6.42468
C         25.20989       38.21225        7.70469
C         24.65141       37.39388        6.58010
O         24.66094       36.17487        6.63339
O         24.13826       38.01548        5.51412
H         23.44536       40.04330        6.24398
H         25.57581       40.19645        8.39690
H         24.61284       37.98559        8.61353
H         26.25661       37.88792        7.89765
N         25.82738       40.97327        5.30894
C         26.76791       41.45568        4.30722
C         27.21975       40.44641        3.25844
O         28.07099       40.83288        2.46890
H         24.88665       41.38377        5.28738
H         27.65829       41.86731        4.83326
H         26.30399       42.30242        3.75630
N         26.74135       39.16439        3.15722
C         27.32057       38.21028        2.19644
C         27.06380       38.54835        0.72080
O         27.65334       37.90346       -0.13355
C         26.95459       36.74088        2.54524
C         25.58998       36.16560        2.09740
N         25.69948       35.22915        0.98911
O         24.64272       37.13619        1.80309
H         26.03542       38.83790        3.83191
H         28.41919       38.26656        2.36873
H         27.03595       36.62797        3.64835
H         27.74036       36.07600        2.12732
H         26.26738       34.41608        1.31934
H         24.74126       34.85276        0.80313
N         26.20050       39.53950        0.35267
C         25.94077       39.96684       -1.01552
C         24.49280       39.77336       -1.43425
O         24.14141       40.23743       -2.51099
H         25.69854       40.04602        1.07887
H         26.58620       39.43518       -1.74640
H         26.18166       41.05018       -1.07431
N         23.61571       39.04543       -0.68445
C         22.24997       38.72858       -1.09309
C         21.27008       38.94423        0.04940
O         21.69056       39.13312        1.18444
C         22.21468       37.24338       -1.50761
C         23.13170       36.99760       -2.68176
C         24.36170       36.34201       -2.50281
C         22.77136       37.44182       -3.96426
C         25.22037       36.14297       -3.58787
C         23.62430       37.22755       -5.05125
C         24.85478       36.58050       -4.86515
O         25.69148       36.37541       -5.90243
H         23.95650       38.60457        0.17203
H         21.94228       39.36859       -1.94996
H         21.19017       36.89860       -1.76733
H         22.55137       36.64520       -0.63024
H         24.66643       36.00375       -1.52154
H         21.82600       37.94578       -4.12235
H         26.17224       35.64985       -3.43483
H         23.32937       37.56751       -6.03597
H         25.47547       36.65967       -6.80208
N         19.92854       38.93522       -0.19226
C         18.91235       39.06746        0.84975
C         17.87509       37.97244        0.64374
O         17.35006       37.87372       -0.45922
C         18.21384       40.46107        0.79537
C         19.24596       41.61610        0.74203
C         17.29769       40.61721        2.03324
C         18.60251       42.99294        0.55292
H         19.61258       38.86267       -1.17311
H         19.37973       38.98512        1.85652
H         17.60274       40.51623       -0.13266
H         19.91462       41.46604       -0.13118
H         19.87034       41.61891        1.65865
H         16.72368       41.56285        2.01479
H         16.55179       39.80371        2.08140
H         17.90235       40.59042        2.96769
H         17.96676       43.27616        1.41497
H         19.39645       43.76239        0.45837
H         17.98977       43.00145       -0.37437
N         17.46879       37.16565        1.66288
C         16.40176       36.17749        1.49975
C         15.09104       36.72419        2.03286
O         15.07067       37.82902        2.54683
C         16.78891       34.86538        2.20175
O         16.94086       35.08316        3.57911
H         17.85332       37.33085        2.60603
H         16.23714       35.95846        0.42172
H         17.74412       34.48719        1.77830
H         15.99364       34.10620        2.02510
H         16.94712       34.18879        4.00856
N         13.93878       36.00760        1.93021
C         12.66800       36.46993        2.48228
C         12.78594       36.65020        3.98390
O         12.40606       37.69384        4.49511
C         11.55422       35.46512        2.17165
H         13.97053       35.09029        1.45851
H         12.37538       37.43480        2.00825
H         11.77759       34.47135        2.61392
H         10.58753       35.83235        2.57979
H         11.44439       35.35316        1.07168
N         13.35837       35.67111        4.74021
C         13.53180       35.74433        6.18712
C         14.24916       37.01152        6.61166
O         13.71982       37.73120        7.44742
C         14.31728       34.52094        6.67674
H         13.71016       34.83354        4.25028
H         12.53061       35.72415        6.67225
H         15.32737       34.49067        6.21299
H         14.43193       34.55257        7.78082
H         13.77778       33.58882        6.40504
N         15.44816       37.35775        6.06498
C         16.17514       38.56999        6.43926
C         15.30015       39.79330        6.22051
O         15.04631       40.51718        7.17359
C         17.49938       38.68305        5.64897
C         18.48141       37.55280        6.02513
C         19.78921       37.61497        5.28251
O         20.00315       38.47125        4.43916
O         20.74070       36.70116        5.55213
H         15.83995       36.74064        5.33914
H         16.43291       38.52328        7.52186
H         17.98449       39.65421        5.89179
H         17.28750       38.66176        4.55846
H         18.03106       36.56056        5.81990
H         18.69798       37.61760        7.11284
N         14.76251       40.05874        5.00173
C         13.85603       41.16155        4.77359
H         12.96221       41.05409        5.42576
H         14.36248       42.12502        4.98772
H         13.51719       41.15755        3.71523
H         14.97730       39.44039        4.21569
Ca        23.43571       37.10600        3.65460
O         20.69947       35.91780        2.37712
H         20.57170       35.50191        1.48791
H         20.64524       35.16204        3.01463
O         23.35718       34.15617        4.02541
H         24.14971       34.61019        4.40789
H         22.60551       34.44154        4.60360

Ca 1.0



