%chk=holoCaM-CaMKII.loop2.water1.frame388.chk
%nprocshared=20
%mem=10GB
%nosave
#b3lyp/svp scf=(tight,noincore,xqc) Test 
#IOP(5/87=12) Density=Current Pop=(MK,readradii) iop(6/33=2) iop(6/42=6)

holoCaM-CaMKII.loop2.water1.frame388 

   -2  1 
C         42.73059       87.17999       63.31781
C         41.39252       86.58032       63.01318
O         41.32525       85.42148       62.63295
H         43.45360       86.93831       62.51314
H         42.65250       88.28468       63.40460
H         43.09468       86.77795       64.28703
N         40.26609       87.30311       63.23857
C         38.93043       86.75898       63.07334
C         38.55136       86.56539       61.61209
O         38.88888       87.38414       60.76913
C         37.91536       87.65052       63.77862
C         36.53775       87.07681       63.66881
O         36.20265       85.83553       64.13587
O         35.69667       87.74844       63.09245
H         40.36661       88.24996       63.63660
H         38.87219       85.79653       63.60930
H         37.94407       88.66373       63.31409
H         38.17567       87.75139       64.85199
N         37.79809       85.48367       61.27667
C         37.33514       85.14473       59.94337
C         35.82406       84.81076       59.90972
O         35.33885       84.45793       58.84414
C         38.19770       83.96511       59.48245
H         37.57383       84.82295       62.02028
H         37.51996       85.98115       59.23538
H         38.10282       83.10553       60.18097
H         37.94213       83.64426       58.45335
H         39.26491       84.28769       59.48635
N         35.03036       84.86951       61.02870
C         33.61013       84.49844       61.08367
C         32.72355       85.52806       61.83231
O         31.56634       85.66225       61.46077
C         33.46125       83.06522       61.64781
C         34.28275       82.82132       62.87599
O         34.13832       83.60737       63.93802
O         35.11471       81.92924       62.90387
H         35.46706       85.10550       61.91880
H         33.18665       84.43334       60.05680
H         33.81244       82.33865       60.88244
H         32.38907       82.85106       61.84956
N         33.15784       86.23192       62.92068
C         32.39449       87.25784       63.63589
C         31.89937       86.80460       65.00460
O         31.30564       87.60653       65.71070
H         34.08360       86.03545       63.28037
H         31.52732       87.60451       63.03846
H         33.06071       88.13824       63.78576
N         32.08022       85.52619       65.43099
C         31.60742       84.96816       66.69740
C         32.29333       85.53968       67.94892
O         31.93663       85.10644       69.03617
C         31.72409       83.42446       66.62912
C         33.12663       82.90504       66.53235
N         33.33402       81.60996       66.23499
O         34.08276       83.64554       66.68350
H         32.50994       84.88168       64.77369
H         30.51853       85.17584       66.77481
H         31.19073       83.09751       65.70795
H         31.23164       82.93649       67.49536
H         32.55339       80.96365       66.05790
H         34.28863       81.27203       66.14351
N         33.23596       86.53243       67.89621
C         33.77169       87.18025       69.09194
C         34.85019       86.39787       69.82891
O         35.23007       86.81835       70.91202
H         33.50563       86.93099       66.98955
H         32.92176       87.41432       69.77043
H         34.23251       88.14885       68.80563
N         35.38913       85.26211       69.30977
C         36.38579       84.41898       69.96720
C         37.43443       83.93820       68.96996
O         37.06589       83.52978       67.88508
C         35.66836       83.18333       70.56810
C         34.89162       83.56873       71.82624
O         34.75856       82.59828       69.66621
H         35.02537       84.92982       68.41438
H         36.90511       84.94405       70.80191
H         36.42844       82.43498       70.88765
H         35.23174       82.38979       68.82468
H         35.57626       84.00832       72.58375
H         34.08912       84.29859       71.59200
H         34.42805       82.65934       72.26165
N         38.76071       83.89245       69.28102
C         39.74636       83.31557       68.36078
C         39.53210       81.80911       68.26530
O         39.63304       81.11538       69.26838
C         41.19980       83.64735       68.79305
C         41.38116       85.18803       68.81314
C         42.23475       82.99731       67.84428
C         42.70893       85.62926       69.41314
H         39.06691       84.24453       70.20038
H         39.61376       83.78359       67.36425
H         41.35407       83.23555       69.81445
H         40.59397       85.64775       69.44142
H         41.27205       85.60864       67.78682
H         43.26815       83.15424       68.21199
H         42.09587       81.90010       67.78673
H         42.15279       83.41828       66.82010
H         42.83288       85.17122       70.41702
H         43.55917       85.34661       68.76123
H         42.70477       86.73382       69.52514
N         39.25330       81.24502       67.06009
C         39.06870       79.81898       66.83793
C         40.41394       79.17325       66.56381
O         41.38863       79.88591       66.42712
C         38.12033       79.61716       65.63515
C         36.79033       80.28860       65.85710
O         36.71116       81.61442       66.17931
O         35.79286       79.58598       65.88845
H         39.20269       81.85587       66.24181
H         38.62498       79.35350       67.74784
H         37.95905       78.52807       65.46844
H         38.57225       80.04288       64.71598
N         40.55329       77.82149       66.51764
C         41.83479       77.14362       66.29910
C         42.39594       77.39771       64.88842
O         43.55968       77.76131       64.81369
C         41.68392       75.66419       66.68083
C         42.96347       74.86870       66.69623
C         44.01843       75.19312       67.57261
C         43.08157       73.74374       65.86819
C         45.16312       74.38890       67.62158
C         44.22543       72.94588       65.91933
C         45.26341       73.26359       66.79853
H         39.71693       77.25032       66.71570
H         42.56698       77.55566       67.03099
H         40.93130       75.18630       66.02986
H         41.28432       75.62449       67.71900
H         43.95097       76.04938       68.23287
H         42.27865       73.47596       65.19351
H         45.96738       74.62875       68.30621
H         44.29835       72.07375       65.28404
H         46.14197       72.63364       66.84480
N         41.65790       77.31150       63.73152
C         42.10593       77.83440       62.43708
C         42.71398       79.23669       62.53157
O         43.75732       79.48572       61.94561
C         40.80484       77.88975       61.61341
C         40.04987       76.69381       62.13874
C         40.31030       76.78511       63.64070
H         42.82626       77.12218       61.97825
H         40.20251       78.78257       61.89839
H         40.95361       77.90637       60.51118
H         38.97417       76.64051       61.86208
H         40.56366       75.78853       61.74252
H         39.60838       77.47669       64.14262
H         40.22379       75.76006       64.05111
N         42.09223       80.19769       63.26883
C         42.57362       81.57498       63.42529
C         43.82499       81.65210       64.28800
O         44.56417       82.62060       64.18435
C         41.47042       82.43211       64.06951
C         40.20928       82.39361       63.19353
C         39.05561       83.09297       63.79213
O         37.97211       82.96768       63.25298
O         39.17575       83.81469       64.92303
H         41.22352       79.91947       63.74665
H         42.78339       82.00644       62.42079
H         41.81105       83.48116       64.20542
H         41.23564       82.02393       65.07421
H         39.86269       81.35371       63.05436
H         40.41330       82.82778       62.19377
N         44.06103       80.70606       65.23446
C         45.18783       80.67947       66.13574
H         45.92945       81.46934       65.90771
H         44.81691       80.80437       67.17543
H         45.68113       79.68606       66.06087
H         43.38372       79.96040       65.35102
Ca        36.45911       83.75574       65.21047
O         36.19163       86.38070       66.71669
H         35.85083       87.30883       66.69691
H         37.17609       86.47011       66.74591

Ca 1.0



