%chk=holoCaM.loop3.water3.frame275.chk
%nprocshared=20
%mem=10GB
%nosave
#b3lyp/svp scf=(tight,noincore,xqc) Test 
#IOP(5/87=12) Density=Current Pop=(MK,readradii) iop(6/33=2) iop(6/42=6)

holoCaM.loop3.water3.frame275 

   0  1 
C         56.01150       -7.48090       70.80922
C         56.81514       -8.32394       69.86792
O         57.85246       -8.84296       70.25599
H         54.99283       -7.90981       70.91363
H         56.49123       -7.43760       71.80944
H         55.93266       -6.45014       70.40303
N         56.37984       -8.50554       68.59267
C         57.10748       -9.29817       67.61218
C         58.45036       -8.64356       67.33587
O         58.48205       -7.45466       67.04796
C         56.27679       -9.42478       66.32686
C         56.82718      -10.44103       65.37182
O         56.23030      -10.65214       64.33660
O         57.92700      -11.16456       65.65492
H         55.48762       -8.06481       68.31690
H         57.23430      -10.32714       68.02072
H         56.19036       -8.43606       65.82534
H         55.25550       -9.77312       66.59457
N         59.60174       -9.36317       67.42522
C         60.93335       -8.76831       67.37167
C         61.61557       -8.97533       66.02327
O         62.59867       -8.29218       65.77213
C         61.69120       -9.26994       68.61498
C         63.08187       -8.69268       68.89346
C         63.47694       -9.07618       70.33743
C         64.86652       -8.59191       70.76757
N         65.93490       -9.36729       70.13821
H         59.52599      -10.37177       67.59891
H         60.83132       -7.66449       67.46197
H         61.78288      -10.37273       68.57319
H         61.03668       -9.01114       69.47747
H         63.05264       -7.58426       68.82405
H         63.80015       -9.08669       68.14384
H         63.41189      -10.17614       70.49333
H         62.73744       -8.59503       71.01623
H         64.94814       -8.72618       71.86978
H         64.98220       -7.50785       70.54723
H         65.90871       -9.26835       69.09963
H         66.85616       -9.02087       70.49086
H         65.83958      -10.37579       70.40239
N         61.10448       -9.81315       65.07098
C         61.53577       -9.80610       63.67186
C         60.35231       -9.56347       62.71997
O         60.57179       -9.56404       61.51630
C         62.33669      -11.07698       63.31056
C         61.60144      -12.38128       63.39369
O         60.32015      -12.44000       63.78892
O         62.18274      -13.41040       63.09087
H         60.34032      -10.44891       65.32830
H         62.25040       -8.97090       63.49819
H         63.22397      -11.13503       63.97763
H         62.70982      -10.96655       62.26758
N         59.08669       -9.29195       63.17403
C         57.97271       -8.96715       62.28987
C         57.44525      -10.12538       61.45626
O         56.67847       -9.86132       60.54133
H         58.91074       -9.21195       64.18240
H         58.29902       -8.14285       61.62040
H         57.11733       -8.58117       62.88567
N         57.78986      -11.42329       61.69829
C         57.37861      -12.53166       60.82896
C         55.87572      -12.85043       60.85723
O         55.45588      -13.69470       60.07789
C         58.23137      -13.79181       61.14390
C         57.82823      -14.59047       62.39925
N         56.78545      -15.56598       62.10374
O         57.39771      -13.73197       63.41326
H         58.42927      -11.61545       62.47818
H         57.66188      -12.22866       59.79703
H         59.28710      -13.46498       61.25841
H         58.22111      -14.48481       60.27542
H         57.11913      -16.20026       61.34089
H         56.67146      -16.16984       62.94862
N         55.01703      -12.25113       61.73693
C         53.59220      -12.54219       61.83214
C         53.17969      -13.09731       63.19121
O         51.99075      -13.30759       63.37900
H         55.37507      -11.54526       62.38218
H         53.27402      -13.27497       61.05933
H         53.03480      -11.59799       61.65202
N         54.09053      -13.40657       64.16512
C         53.73827      -14.07900       65.42055
C         54.65146      -13.63429       66.56330
O         55.60399      -12.90822       66.33369
C         53.90194      -15.59915       65.21811
C         52.93200      -16.15168       64.20044
C         53.36566      -16.46774       62.90340
C         51.58537      -16.36338       64.53991
C         52.47486      -16.98056       61.95963
C         50.69580      -16.89546       63.59857
C         51.13956      -17.20389       62.30338
O         50.29689      -17.71606       61.38404
H         55.08627      -13.29392       63.95324
H         52.69271      -13.83204       65.71049
H         53.77402      -16.16843       66.16411
H         54.94600      -15.76886       64.87596
H         54.38847      -16.30381       62.61414
H         51.22990      -16.13367       65.53670
H         52.82645      -17.20774       60.96088
H         49.66403      -17.06931       63.87629
H         49.36782      -17.89982       61.58172
N         54.39372      -14.03780       67.84354
C         55.21747      -13.66756       68.99700
C         55.59983      -14.93698       69.74659
O         54.70862      -15.71630       70.05488
C         54.43296      -12.72831       69.96306
C         53.78333      -11.53963       69.21043
C         55.39016      -12.20968       71.06476
C         52.83045      -10.72812       70.09308
H         53.54901      -14.60337       68.01597
H         56.12583      -13.11295       68.67129
H         53.60957      -13.31639       70.42621
H         53.16045      -11.92818       68.37783
H         54.56482      -10.87776       68.77990
H         54.86697      -11.58267       71.81141
H         55.85060      -13.04650       71.62537
H         56.20820      -11.60554       70.61118
H         52.34705       -9.93539       69.48556
H         52.03499      -11.39109       70.49869
H         53.35714      -10.23584       70.93354
N         56.88254      -15.17343       70.14721
C         57.25376      -16.34620       70.93890
C         57.58162      -15.95015       72.36938
O         57.59022      -14.77086       72.68841
C         58.42489      -17.08887       70.27075
O         59.57406      -16.28646       70.22547
H         57.60327      -14.46763       69.94601
H         56.40029      -17.05430       71.00335
H         58.13672      -17.42289       69.24746
H         58.67411      -18.01209       70.83406
H         59.55557      -15.80844       69.35720
N         57.83217      -16.91536       73.30023
C         58.16414      -16.63185       74.69486
C         59.44165      -15.83054       74.78604
O         59.49400      -14.87374       75.54547
C         58.32960      -17.93574       75.47971
H         57.78519      -17.90108       73.00024
H         57.33246      -16.06827       75.17524
H         57.38457      -18.51836       75.44296
H         59.15217      -18.55197       75.05905
H         58.55568      -17.70956       76.54459
N         60.50208      -16.14803       73.99341
C         61.73757      -15.37926       73.95603
C         61.46105      -13.92336       73.62725
O         61.88669      -13.05383       74.37488
C         62.68420      -15.96973       72.89932
H         60.40631      -16.95352       73.35477
H         62.24492      -15.44473       74.94414
H         62.22116      -15.93808       71.88855
H         63.63698      -15.39980       72.86997
H         62.91472      -17.02866       73.14252
N         60.75860      -13.58901       72.50823
C         60.54379      -12.20473       72.08805
C         59.65015      -11.42766       73.05082
O         59.59833      -10.21084       72.93681
C         59.93031      -12.14749       70.66972
C         60.79689      -12.88618       69.62940
C         60.17247      -12.86158       68.26711
O         60.80265      -12.44405       67.30923
O         58.92795      -13.34023       68.08506
H         60.40382      -14.35816       71.92485
H         61.54124      -11.71111       72.05284
H         59.81786      -11.08539       70.35894
H         58.91781      -12.60648       70.70209
H         60.91194      -13.94980       69.89804
H         61.81393      -12.44156       69.59881
N         58.89259      -12.05809       73.99400
C         58.02731      -11.37307       74.93239
H         56.97744      -11.69473       74.76539
H         58.32159      -11.64873       75.96733
H         58.08067      -10.26934       74.83395
H         58.89776      -13.08049       74.04545
Ca        58.60035      -14.12540       65.29162
O         60.29242      -16.04735       63.66356
H         60.81919      -16.79718       64.03564
H         60.67551      -15.24457       64.09579
O         60.53440      -15.67742       66.82034
H         61.44502      -15.33601       67.00447
H         60.54789      -16.61710       67.12931
O         57.13429      -16.36120       66.27547
H         56.85928      -16.82197       67.10632
H         57.87852      -16.90701       65.91640

Ca 1.0



