%chk=holoCaM-CaMKII.loop1.water2.frame112.chk
%nprocshared=20
%mem=10GB
%nosave
#b3lyp/svp scf=(tight,noincore,xqc) Test 
#IOP(5/87=12) Density=Current Pop=(MK,readradii) iop(6/33=2) iop(6/42=6)

holoCaM-CaMKII.loop1.water2.frame112 

   0  1 
C         32.42090       25.96245       61.49660
C         31.83475       25.08839       60.43192
O         30.84978       24.41829       60.69672
H         33.32045       26.49958       61.12881
H         31.66611       26.70700       61.82235
H         32.71658       25.33212       62.36162
N         32.38539       25.04756       59.18969
C         31.88289       24.17892       58.13498
C         32.14402       22.73136       58.52840
O         33.29358       22.39997       58.78703
C         32.59820       24.52260       56.81823
C         32.01870       23.83433       55.62438
O         32.54659       24.00529       54.54429
O         30.91512       23.06762       55.71087
H         33.19153       25.66063       58.98936
H         30.79696       24.38283       57.99097
H         33.67762       24.26951       56.90381
H         32.51035       25.61486       56.62622
N         31.13255       21.81900       58.60666
C         31.32671       20.45719       59.10873
C         31.32987       19.40148       58.00749
O         31.65420       18.26203       58.31084
C         30.26820       20.11348       60.18602
C         30.09558       21.18219       61.28272
C         31.38077       21.62027       61.99568
C         32.08343       20.48624       62.74211
N         33.31003       20.97890       63.36708
H         30.19418       22.11845       58.33019
H         32.33123       20.38840       59.57699
H         30.52291       19.13699       60.64954
H         29.27400       19.99751       59.69844
H         29.35126       20.82351       62.02729
H         29.67317       22.08022       60.80512
H         31.11771       22.42185       62.72100
H         32.08030       22.05923       61.25689
H         32.34579       19.67177       62.03382
H         31.40246       20.07701       63.52050
H         33.77948       20.19243       63.86962
H         33.95979       21.34704       62.63363
H         33.08760       21.73925       64.05011
N         31.00278       19.69721       56.71583
C         31.09446       18.73929       55.60695
C         31.99963       19.24047       54.47342
O         32.19986       18.49896       53.52102
C         29.68684       18.35984       55.09702
C         28.85638       19.50923       54.59433
O         29.34237       20.76385       54.59338
O         27.71107       19.30470       54.22817
H         30.67065       20.64491       56.51363
H         31.55011       17.79043       55.96700
H         29.13628       17.89093       55.94261
H         29.77851       17.59745       54.29254
N         32.62003       20.45524       54.52437
C         33.59424       20.91960       53.55017
C         33.05885       21.17634       52.15590
O         33.60428       20.60860       51.22030
H         32.47763       21.06562       55.33726
H         34.43329       20.19072       53.50717
H         34.01760       21.88138       53.90926
N         32.05246       22.07368       51.92847
C         31.64980       22.49704       50.57960
C         31.78667       24.01134       50.35622
O         31.60108       24.44408       49.22691
C         30.23608       21.98460       50.23670
C         29.12423       22.50922       51.10115
O         29.36078       23.38824       52.08829
O         27.98188       22.13103       50.89994
H         31.57767       22.48130       52.74477
H         32.32710       22.02968       49.83204
H         30.24380       20.87648       50.31699
H         30.00479       22.24906       49.18139
N         32.12208       24.87200       51.36165
C         32.36149       26.29650       51.19134
C         31.40211       27.16814       51.97930
O         31.66420       28.35870       52.06470
H         32.25517       24.51402       52.30699
H         32.32111       26.61157       50.12705
H         33.39194       26.49639       51.55915
N         30.25212       26.67687       52.53291
C         29.29984       27.50990       53.26730
C         28.99117       26.93158       54.64123
O         29.40219       25.82699       54.96284
C         27.99499       27.70112       52.45131
C         28.22308       28.53587       51.18200
O         27.39855       26.46547       52.14527
H         30.01315       25.69026       52.39217
H         29.73456       28.51747       53.44702
H         27.26699       28.28208       53.05731
H         27.89811       26.05773       51.38984
H         28.94167       28.03978       50.49701
H         27.25903       28.67788       50.64855
H         28.62002       29.53736       51.45514
N         28.28803       27.69835       55.52329
C         27.95307       27.32208       56.89251
C         26.44832       27.48940       57.07208
O         25.92252       28.52891       56.70031
C         28.73032       28.24723       57.87691
C         30.26233       28.10807       57.65938
C         28.36698       27.91364       59.34117
C         31.07616       29.17657       58.39168
H         28.01673       28.64704       55.22384
H         28.25440       26.27422       57.11616
H         28.43662       29.29882       57.66184
H         30.50624       28.23604       56.58471
H         30.60010       27.09389       57.96665
H         28.87988       28.58672       60.05482
H         27.28209       28.04600       59.51875
H         28.64053       26.86295       59.58228
H         30.94980       29.12194       59.49001
H         32.15426       29.03652       58.16616
H         30.77335       30.18539       58.03625
N         25.70759       26.53698       57.70721
C         24.27298       26.67348       57.95760
C         24.03324       26.97654       59.42507
O         24.97625       27.01270       60.19572
C         23.50976       25.38825       57.53310
C         23.67280       25.05850       56.04305
O         23.88279       24.29193       58.32919
H         26.19455       25.72620       58.10274
H         23.86178       27.53312       57.38596
H         22.42301       25.54646       57.69687
H         24.73830       23.94004       57.97844
H         23.08866       24.14347       55.80351
H         23.29578       25.89608       55.42162
H         24.73843       24.86858       55.79275
N         22.77558       27.22752       59.87982
C         22.47179       27.47974       61.28657
C         22.83169       26.25489       62.11488
O         23.50415       26.39012       63.12746
C         20.97419       27.84036       61.44997
C         20.62283       28.18861       62.90000
O         20.67899       28.96353       60.65544
H         22.00397       27.22916       59.19678
H         23.05572       28.36026       61.63990
H         20.34420       26.96888       61.14750
H         20.14910       28.65160       59.87608
H         19.54853       28.46179       62.96932
H         20.80599       27.32654       63.57423
H         21.22913       29.05389       63.24593
N         22.44481       25.01666       61.69655
C         22.73078       23.77073       62.40504
C         24.21255       23.62856       62.69940
O         24.58045       23.40929       63.84468
C         22.26514       22.57852       61.53610
C         22.22901       21.24569       62.29770
C         21.81907       20.08804       61.35908
C         20.76098       19.15116       61.96411
N         21.19853       18.49760       63.19554
H         21.92946       24.95961       60.80394
H         22.15734       23.77026       63.35899
H         22.90368       22.49924       60.62860
H         21.22089       22.76980       61.20047
H         21.47643       21.38613       63.10237
H         23.20200       20.99607       62.77720
H         22.72738       19.53496       61.02880
H         21.34242       20.49203       60.43933
H         20.50506       18.37625       61.20770
H         19.83972       19.74265       62.16724
H         20.42665       17.87443       63.52810
H         22.05024       17.92038       63.01552
H         21.39079       19.20343       63.94132
N         25.11673       23.75886       61.69147
C         26.55949       23.61527       61.85872
C         27.06795       24.60096       62.89793
O         27.62935       24.16308       63.89276
C         27.26390       23.77512       60.48686
C         26.86141       22.61215       59.54423
C         27.45141       22.68618       58.16368
O         27.30064       23.67648       57.46974
O         28.04927       21.60194       57.63739
H         24.74719       23.98826       60.75863
H         26.78607       22.58968       62.22935
H         28.35838       23.77806       60.62458
H         26.98936       24.75503       60.04345
H         25.76532       22.58994       59.42150
H         27.15309       21.64304       60.00287
N         26.85791       25.93811       62.76130
C         27.23005       26.91829       63.76226
H         27.92167       27.66201       63.31664
H         26.31536       27.44412       64.11191
H         27.72013       26.45939       64.64654
H         26.38129       26.28229       61.92331
Ca        28.03651       22.58303       54.41055
O         25.88683       23.91052       53.05547
H         25.42050       24.76606       52.88584
H         26.66772       23.92952       52.44758
O         25.60233       21.30347       55.69018
H         25.86254       21.02337       54.77767
H         24.64716       21.54636       55.60561

Ca 1.0



