%chk=holoCaM.loop2.water1.frame225.chk
%nprocshared=20
%mem=10GB
%nosave
#b3lyp/svp scf=(tight,noincore,xqc) Test 
#IOP(5/87=12) Density=Current Pop=(MK,readradii) iop(6/33=2) iop(6/42=6)

holoCaM.loop2.water1.frame225 

   -2  1 
C         35.18308       88.93549       27.16240
C         33.88744       89.11625       27.88706
O         32.97404       88.32661       27.68907
H         35.99727       88.78029       27.90153
H         35.13558       88.05202       26.49117
H         35.40050       89.84074       26.55924
N         33.74454       90.13830       28.77458
C         32.52863       90.32438       29.54989
C         31.37012       90.64778       28.60841
O         31.47739       91.60826       27.85873
C         32.75247       91.40096       30.64495
C         31.76189       91.27888       31.76892
O         30.79871       90.34934       31.69472
O         31.87463       91.96428       32.77068
H         34.54707       90.76816       28.93257
H         32.35185       89.36540       30.07877
H         32.77197       92.42513       30.21283
H         33.73730       91.20513       31.12254
N         30.25643       89.85626       28.56042
C         29.20254       89.98755       27.55232
C         27.87855       90.50417       28.10478
O         26.98082       90.74861       27.31054
C         28.99147       88.62106       26.89017
H         30.17224       89.09325       29.24028
H         29.51847       90.71610       26.77481
H         28.64527       87.88220       27.64787
H         28.23044       88.68194       26.08419
H         29.94430       88.25366       26.45421
N         27.68838       90.71967       29.43466
C         26.48543       91.33668       30.00647
C         26.82901       92.64265       30.73622
O         25.91272       93.30289       31.20574
C         25.67380       90.33949       30.89375
C         26.42619       89.70660       32.03323
O         27.74009       89.90659       32.10926
O         25.87140       88.94936       32.81262
H         28.45926       90.47054       30.06034
H         25.78912       91.63299       29.19189
H         25.30023       89.51533       30.24810
H         24.79190       90.87572       31.30451
N         28.11160       93.11071       30.82088
C         28.47896       94.40021       31.38096
C         28.15497       94.54676       32.84675
O         27.51840       95.52605       33.20914
H         28.88984       92.57084       30.42074
H         27.99557       95.21437       30.79658
H         29.57943       94.52461       31.27411
N         28.59934       93.63269       33.75415
C         28.45152       93.79727       35.20068
C         29.81484       93.77068       35.90700
O         29.84714       93.79684       37.12919
C         27.43827       92.77199       35.75931
C         27.84929       91.32916       35.70231
N         26.99398       90.36693       36.11661
O         28.95318       91.01952       35.29804
H         29.08237       92.79165       33.40198
H         27.99688       94.78556       35.43177
H         26.48998       92.89004       35.18955
H         27.22794       93.01577       36.82291
H         26.05689       90.61300       36.46753
H         27.26498       89.37372       36.08312
N         30.98341       93.79555       35.19539
C         32.31024       93.89653       35.78552
C         32.89542       92.60772       36.33481
O         34.05444       92.64899       36.72061
H         30.94582       93.87575       34.17080
H         32.32947       94.70489       36.54757
H         33.00712       94.19908       34.97241
N         32.20499       91.43168       36.38330
C         32.80996       90.16532       36.80854
C         32.70946       89.13245       35.68681
O         32.16893       89.43472       34.63381
C         32.18528       89.68424       38.14170
C         32.52511       90.65280       39.28256
O         30.79372       89.56495       38.01814
H         31.22069       91.41629       36.09522
H         33.89923       90.29152       36.99447
H         32.62779       88.69678       38.40546
H         30.48417       89.00965       38.78127
H         32.10400       91.66127       39.08848
H         32.11068       90.27229       40.24004
H         33.62798       90.73747       39.39577
N         33.27698       87.89883       35.83503
C         33.34833       86.89215       34.77744
C         32.59070       85.63134       35.18133
O         32.82766       85.08920       36.25025
C         34.85005       86.64054       34.41817
C         35.37414       87.88178       33.63644
C         35.04920       85.35775       33.58723
C         36.85443       87.83422       33.25796
H         33.73823       87.67120       36.72767
H         32.86824       87.25462       33.85400
H         35.42787       86.50092       35.35848
H         35.21896       88.79573       34.24765
H         34.78732       87.99670       32.69605
H         34.51445       85.42637       32.62424
H         36.12254       85.16896       33.38754
H         34.69322       84.46965       34.14804
H         37.07666       86.99023       32.57423
H         37.11846       88.76799       32.71641
H         37.48254       87.75787       34.16862
N         31.71192       85.07332       34.29089
C         31.00166       83.81115       34.49243
C         31.73650       82.69946       33.75850
O         32.75416       82.97090       33.15281
C         29.56767       83.93297       33.93127
C         28.78196       85.02538       34.58887
O         28.34931       85.95428       33.92421
O         28.52774       84.97231       35.90976
H         31.62332       85.50490       33.36063
H         30.97466       83.54536       35.57147
H         29.01178       82.98419       34.07873
H         29.62435       84.13259       32.83600
N         31.29516       81.40837       33.78958
C         32.00461       80.32328       33.11272
C         32.08177       80.48929       31.59269
O         33.19528       80.39849       31.08899
C         31.42045       78.94250       33.48260
C         32.24424       77.81643       32.88162
C         33.62194       77.70322       33.16177
C         31.64687       76.87402       32.02651
C         34.38294       76.68368       32.58469
C         32.41203       75.84746       31.46052
C         33.77902       75.75587       31.73519
H         30.45414       81.18451       34.34087
H         33.04160       80.32799       33.51056
H         30.36204       78.87726       33.15224
H         31.43799       78.83239       34.58840
H         34.11787       78.40637       33.81723
H         30.59067       76.93153       31.79678
H         35.44268       76.61483       32.79621
H         31.94633       75.12360       30.80476
H         34.37118       74.96600       31.29107
N         31.00437       80.72209       30.77399
C         31.10809       80.83620       29.32127
C         32.06344       81.94424       28.91353
O         32.84324       81.74306       27.99423
C         29.65901       81.06557       28.86422
C         29.01961       81.73638       30.05873
C         29.64100       80.96027       31.21882
H         31.46389       79.89462       28.84503
H         29.53864       81.58171       27.88683
H         29.16639       80.06983       28.78815
H         29.37167       82.78809       30.09094
H         27.90914       81.75845       30.05836
H         29.55039       81.59396       32.11625
H         29.13780       79.98047       31.36511
N         32.10237       83.11395       29.60042
C         33.02369       84.20247       29.29701
C         34.45980       83.72056       29.46199
O         35.23546       83.82103       28.52146
C         32.71103       85.40848       30.21099
C         31.27068       85.92499       29.98280
C         30.87618       87.02515       30.92026
O         31.76132       87.55999       31.77706
O         29.72466       87.42853       30.91978
H         31.47528       83.21334       30.40716
H         32.87346       84.54162       28.24768
H         33.43404       86.23073       30.01343
H         32.80816       85.08837       31.26690
H         30.54072       85.11153       30.15463
H         31.15338       86.27657       28.93517
N         34.86501       83.13418       30.62031
C         36.19185       82.59468       30.81926
H         36.94974       83.40072       30.74327
H         36.26109       82.13382       31.82969
H         36.39847       81.80562       30.06502
H         34.19488       83.03300       31.38372
Ca        29.53318       89.43120       33.29148
O         29.51520       87.69703       35.89161
H         28.95946       87.63768       36.70843
H         29.89456       88.60784       35.91217

Ca 1.0



