%chk=holoCaM.loop3.water2.frame375.chk
%nprocshared=20
%mem=10GB
%nosave
#b3lyp/svp scf=(tight,noincore,xqc) Test 
#IOP(5/87=12) Density=Current Pop=(MK,readradii) iop(6/33=2) iop(6/42=6)

holoCaM.loop3.water2.frame375 

   0  1 
C        -12.44943       83.23241       49.25346
C        -12.63052       82.29663       48.09694
O        -12.71793       82.76089       46.96898
H        -13.31159       83.92872       49.30503
H        -12.38061       82.68006       50.21446
H        -11.51402       83.81327       49.11334
N        -12.67959       80.95166       48.29982
C        -12.82241       79.99953       47.20879
C        -14.17541       80.19767       46.52490
O        -15.19929       80.08589       47.18478
C        -12.64406       78.56702       47.75406
C        -12.55621       77.53709       46.67388
O        -12.44157       76.36343       46.97151
O        -12.60751       77.89005       45.38080
H        -12.57912       80.59521       49.26347
H        -11.99371       80.18350       46.49052
H        -13.48710       78.32023       48.43583
H        -11.69902       78.50572       48.33433
N        -14.23948       80.55028       45.20777
C        -15.47855       80.91609       44.52100
C        -16.52844       79.81361       44.51465
O        -17.65992       80.09460       44.88494
C        -15.20075       81.46367       43.09924
C        -14.65871       80.46031       42.06684
C        -14.38339       81.18144       40.73814
C        -13.87546       80.22054       39.65671
N        -13.61605       80.93852       38.40776
H        -13.35349       80.63997       44.69096
H        -15.91297       81.78550       45.06542
H        -14.47619       82.30268       43.19969
H        -16.14939       81.88671       42.69997
H        -15.40930       79.66102       41.89312
H        -13.71894       79.99985       42.43216
H        -13.62146       81.97478       40.90461
H        -15.32109       81.65999       40.37849
H        -14.63869       79.43149       39.47428
H        -12.93703       79.73236       40.00029
H        -14.49256       81.39510       38.06427
H        -12.87807       81.66490       38.55702
H        -13.28248       80.26213       37.68379
N        -16.22841       78.53735       44.14076
C        -17.21733       77.45515       44.11141
C        -17.07609       76.52057       45.30504
O        -17.90329       75.62870       45.43714
C        -17.19220       76.72441       42.74434
C        -15.81351       76.26556       42.36703
O        -15.13410       75.42155       43.15744
O        -15.24991       76.77062       41.40951
H        -15.24592       78.31548       43.92227
H        -18.24272       77.87047       44.22561
H        -17.53691       77.44452       41.97020
H        -17.89612       75.86472       42.74565
N        -16.12560       76.71101       46.26517
C        -16.10563       75.96951       47.51221
C        -15.90818       74.49059       47.32123
O        -16.75463       73.72546       47.76248
H        -15.42829       77.46002       46.16313
H        -17.05817       76.15600       48.05719
H        -15.27791       76.34897       48.15008
N        -14.78101       74.01506       46.72291
C        -14.46392       72.59285       46.63808
C        -13.24101       72.24509       47.48739
O        -12.90341       71.07231       47.56280
C        -14.30042       72.15896       45.16425
C        -13.01674       72.62820       44.51728
N        -12.15317       71.73795       43.97719
O        -12.75281       73.81546       44.47001
H        -14.10532       74.69627       46.35572
H        -15.31321       72.00350       47.04713
H        -15.17091       72.53510       44.58281
H        -14.32901       71.04930       45.12033
H        -12.35100       70.72734       43.99389
H        -11.28109       72.06123       43.53312
N        -12.53322       73.20848       48.15648
C        -11.38650       72.94491       49.00773
C        -10.09865       73.53117       48.45885
O         -9.09242       73.42342       49.14530
H        -12.80731       74.19425       48.08701
H        -11.22087       71.85398       49.14010
H        -11.59684       73.37818       50.00873
N        -10.02005       74.07215       47.20497
C         -8.75339       74.41670       46.56137
C         -8.81063       75.78237       45.89692
O         -9.71891       76.02862       45.11460
C         -8.45161       73.31917       45.52112
C         -8.27152       71.98921       46.22409
C         -9.20920       70.95665       46.06228
C         -7.17395       71.78554       47.07998
C         -9.06051       69.74967       46.75220
C         -7.02318       70.57659       47.76420
C         -7.96975       69.55510       47.60558
O         -7.84346       68.38788       48.26852
H        -10.86350       74.09689       46.61350
H         -7.91394       74.41842       47.28946
H         -7.52735       73.55096       44.94858
H         -9.29758       73.27355       44.79912
H        -10.06567       71.08944       45.42088
H         -6.43613       72.56519       47.22180
H         -9.79867       68.96726       46.62842
H         -6.17409       70.43834       48.42169
H         -7.10677       68.21660       48.87262
N         -7.81703       76.69643       46.11765
C         -7.75393       78.00665       45.47479
C         -6.58207       78.02780       44.50230
O         -5.43541       77.98478       44.92702
C         -7.64064       79.12676       46.56063
C         -8.96157       79.19246       47.36656
C         -7.30209       80.50419       45.95860
C         -8.96592       80.23264       48.48961
H         -7.03562       76.43668       46.73927
H         -8.67569       78.19041       44.87887
H         -6.79912       78.86586       47.24083
H         -9.15887       78.19996       47.82384
H         -9.79617       79.42623       46.67221
H         -6.36120       80.46790       45.37559
H         -8.12822       80.86403       45.32463
H         -7.11705       81.25380       46.75304
H         -9.93257       80.18618       49.03153
H         -8.14215       80.03177       49.20519
H         -8.87114       81.26333       48.09030
N         -6.82059       78.09319       43.16001
C         -5.77319       78.21613       42.14782
C         -5.19963       79.62757       42.13761
O         -5.65105       80.46334       42.90254
C         -6.36633       77.90331       40.75663
O         -7.36546       78.83475       40.42459
H         -7.79918       78.04255       42.84186
H         -4.97643       77.46533       42.34405
H         -6.77205       76.86365       40.77326
H         -5.58270       77.92849       39.97068
H         -8.15892       78.32392       40.11774
N         -4.23049       79.97955       41.24701
C         -3.78494       81.35889       41.05936
C         -4.92741       82.21631       40.53436
O         -5.15466       83.29507       41.06482
C         -2.62363       81.41517       40.06401
H         -3.82767       79.24622       40.64404
H         -3.40139       81.77220       42.01989
H         -1.77136       80.81614       40.44919
H         -2.92595       81.02047       39.07134
H         -2.28148       82.46666       39.94526
N         -5.70978       81.76939       39.50374
C         -6.82533       82.52159       38.91930
C         -7.95038       82.85970       39.89780
O         -8.87664       83.54936       39.49340
C         -7.42242       81.72666       37.74843
H         -5.48560       80.84518       39.10297
H         -6.42082       83.47824       38.52276
H         -6.63814       81.51059       36.99283
H         -7.84294       80.76340       38.11311
H         -8.23235       82.30217       37.25116
N         -7.93517       82.44155       41.19188
C         -8.94324       82.78577       42.17943
C         -8.31457       83.72083       43.19732
O         -8.81251       84.82588       43.36170
C         -9.47069       81.49671       42.82704
C        -10.21371       80.61107       41.82046
C        -10.64046       79.33665       42.47965
O        -10.25363       78.25932       42.05870
O        -11.44342       79.37969       43.55299
H         -7.16508       81.85642       41.52388
H         -9.80368       83.32417       41.72149
H        -10.15933       81.75446       43.66274
H         -8.61275       80.91883       43.22491
H         -9.55477       80.37329       40.95859
H        -11.11129       81.14570       41.44321
N         -7.19015       83.36534       43.88115
C         -6.49494       84.24208       44.80132
H         -5.46156       84.41069       44.42876
H         -6.99031       85.22982       44.90477
H         -6.44010       83.76316       45.80035
H         -6.77929       82.43835       43.72782
Ca       -13.25081       76.38570       43.87330
O        -11.90817       76.81117       40.22957
H        -12.08355       76.71686       39.26024
H        -12.74840       77.17866       40.60160
O        -10.46870       74.74727       42.16821
H        -10.89041       73.90310       41.86851
H         -9.50473       74.62397       41.97845

Ca 1.0



