%chk=holoCaM.loop1.water2.frame186.chk
%nprocshared=20
%mem=10GB
%nosave
#b3lyp/svp scf=(tight,noincore,xqc) Test 
#IOP(5/87=12) Density=Current Pop=(MK,readradii) iop(6/33=2) iop(6/42=6)

holoCaM.loop1.water2.frame186 

   0  1 
C         36.05400       90.49888       93.47525
C         37.11138       91.50389       93.81956
O         37.45754       91.63389       94.98248
H         35.18878       91.02464       93.01684
H         36.45385       89.75703       92.75419
H         35.70085       89.97014       94.38615
N         37.66284       92.27004       92.84078
C         38.62322       93.33860       93.10210
C         37.97601       94.40168       93.97438
O         36.92109       94.90469       93.61296
C         39.11834       93.91771       91.76236
C         39.96345       95.15922       91.88530
O         41.08926       95.21219       92.63264
O         39.61625       96.15734       91.27484
H         37.35897       92.09727       91.86904
H         39.50311       92.91273       93.62145
H         38.24057       94.16997       91.12537
H         39.70308       93.13108       91.23676
N         38.56760       94.78636       95.14453
C         37.96806       95.73006       96.08208
C         38.73385       97.04279       96.17806
O         38.22574       97.92682       96.85525
C         37.90157       95.11104       97.50170
C         37.16108       93.77136       97.61908
C         35.67595       93.88028       97.25643
C         34.94503       92.55560       97.51325
N         33.52315       92.67774       97.19437
H         39.48145       94.38507       95.38240
H         36.94358       95.99453       95.74456
H         37.42285       95.83215       98.19974
H         38.93994       94.94687       97.86166
H         37.24312       93.44087       98.67830
H         37.66273       93.00707       96.99502
H         35.56760       94.15520       96.18610
H         35.20965       94.67109       97.88342
H         35.05350       92.27463       98.58506
H         35.39472       91.74893       96.89311
H         33.08602       93.42370       97.78357
H         33.40112       92.91119       96.18225
H         33.04686       91.76876       97.39396
N         39.94139       97.26017       95.56828
C         40.65602       98.53624       95.68526
C         40.87502       99.23678       94.34596
O         41.26918      100.39462       94.36812
C         41.96847       98.36462       96.48331
C         43.01091       97.46379       95.87067
O         42.82576       96.89845       94.80635
O         44.17669       97.28074       96.51838
H         40.37751       96.49783       95.03375
H         40.03858       99.24699       96.27603
H         41.71390       97.95649       97.48586
H         42.42722       99.36585       96.63296
N         40.63325       98.62590       93.15004
C         40.69841       99.30735       91.86358
C         41.83471       98.84350       90.97190
O         41.86514       99.26668       89.82488
H         40.35764       97.63966       93.13576
H         40.81024      100.40597       91.98521
H         39.72968       99.13265       91.34789
N         42.84610       98.04970       91.42936
C         44.01851       97.71664       90.61515
C         43.74506       96.70220       89.50265
O         44.65959       96.41563       88.74252
C         45.18555       97.25790       91.52145
C         44.95163       96.00106       92.31638
O         43.91469       95.36507       92.22058
O         45.91334       95.57650       93.15627
H         42.83944       97.77429       92.41995
H         44.37551       98.65577       90.13605
H         45.39759       98.07655       92.24325
H         46.09564       97.11169       90.90074
N         42.52684       96.11566       89.34221
C         42.22662       95.13348       88.31270
C         43.03076       93.86637       88.48871
O         43.60378       93.38972       87.52206
H         41.75965       96.36410       89.97625
H         42.37553       95.56724       87.29945
H         41.15446       94.85384       88.40711
N         43.04521       93.24307       89.69961
C         43.69255       91.95562       90.00146
C         43.21921       91.43486       91.36574
O         42.55814       92.16072       92.09094
C         45.25649       92.00890       90.00654
C         45.95120       92.25548       88.66159
O         45.72405       92.92847       90.95770
H         42.48312       93.70519       90.42861
H         43.33754       91.21431       89.25167
H         45.61010       91.00031       90.31139
H         45.50270       93.83549       90.62187
H         45.59928       91.52444       87.90296
H         45.80384       93.29241       88.30459
H         47.04742       92.12560       88.78734
N         43.46289       90.14981       91.75697
C         42.94510       89.58828       93.00743
C         44.07152       88.92698       93.79430
O         44.62143       87.93644       93.33179
C         41.77532       88.61040       92.66470
C         40.58104       89.43393       92.09797
C         41.32866       87.77967       93.88239
C         39.42282       88.59448       91.56281
H         43.95857       89.51893       91.10814
H         42.51874       90.38666       93.65486
H         42.13700       87.89580       91.89164
H         40.92321       90.05553       91.24589
H         40.19509       90.11876       92.88698
H         40.53772       87.05568       93.60435
H         42.16785       87.16822       94.26804
H         40.94868       88.43490       94.68889
H         38.95633       87.97826       92.35578
H         38.63919       89.27435       91.16455
H         39.77769       87.94188       90.73777
N         44.45810       89.42598       95.00928
C         45.46811       88.78344       95.85525
C         44.91921       87.49763       96.46738
O         43.74313       87.20383       96.31207
C         45.93612       89.72897       97.00182
C         46.66551       90.96624       96.47579
O         44.83728       90.12575       97.77811
H         44.02012       90.29803       95.34079
H         46.35807       88.54011       95.23332
H         46.66265       89.17707       97.64020
H         45.19618       90.48596       98.63080
H         47.02370       91.58115       97.32917
H         47.54522       90.66607       95.86826
H         45.98834       91.59048       95.86830
N         45.73215       86.68962       97.20802
C         45.26180       85.49305       97.90576
C         44.24957       85.87090       98.97608
O         43.28595       85.14178       99.16359
C         46.44880       84.72703       98.53629
C         45.99880       83.40519       99.17717
O         47.38624       84.43959       97.53035
H         46.72849       86.94352       97.28768
H         44.78857       84.80816       97.16551
H         46.91412       85.37881       99.31373
H         48.26518       84.32705       97.97798
H         45.27639       83.58102      100.00079
H         45.52348       82.75014       98.41480
H         46.87602       82.87320       99.60094
N         44.40623       87.01143       99.70896
C         43.44026       87.46802      100.70354
C         42.09094       87.69349      100.03956
O         41.10494       87.10714      100.46335
C         43.95905       88.76657      101.37164
C         43.11532       89.21408      102.57655
C         43.73575       90.45502      103.24022
C         42.98983       90.84149      104.52534
N         43.60511       92.00969      105.15732
H         45.24042       87.59282       99.53341
H         43.35183       86.69199      101.49657
H         44.02014       89.58908      100.62640
H         44.98762       88.56725      101.74554
H         43.09305       88.38396      103.31586
H         42.07375       89.44153      102.26095
H         43.71749       91.30653      102.52462
H         44.79375       90.23754      103.50575
H         43.02231       89.98669      105.23756
H         41.92554       91.06546      104.29271
H         44.60643       91.81166      105.38734
H         43.54771       92.83657      104.51957
H         43.09545       92.22940      106.04358
N         41.99278       88.52669       98.96515
C         40.74190       88.81412       98.26725
C         40.17153       87.60531       97.52439
O         39.06476       87.71389       97.01434
C         40.94363       89.96728       97.25979
C         41.41094       91.26360       97.94050
C         41.47456       92.37310       96.94147
O         42.26008       92.28241       95.85247
O         40.78100       93.36040       97.09900
H         42.85218       88.99032       98.64876
H         39.99458       89.14513       99.02219
H         39.97467       90.16984       96.74937
H         41.69161       89.66885       96.49231
H         42.41154       91.14488       98.39944
H         40.68708       91.53537       98.74013
N         40.86223       86.43685       97.40212
C         40.36182       85.26304       96.71674
H         39.34513       85.41353       96.29942
H         41.05144       85.00173       95.88653
H         40.32783       84.41221       97.43014
H         41.80015       86.36215       97.79735
Ca        41.79238       93.69892       94.16059
O         44.81333       94.16913       96.30825
H         44.56357       94.58847       97.16954
H         45.80222       94.12454       96.33202
O         45.11629       92.21150       93.63353
H         45.44667       93.13950       93.70908
H         45.92347       91.67740       93.42396

Ca 1.0



