%chk=holoCaM-CaMKII.loop1.water2.frame9.chk
%nprocshared=20
%mem=10GB
%nosave
#b3lyp/svp scf=(tight,noincore,xqc) Test 
#IOP(5/87=12) Density=Current Pop=(MK,readradii) iop(6/33=2) iop(6/42=6)

holoCaM-CaMKII.loop1.water2.frame9 

   0  1 
C         64.15090       67.34550        2.30228
C         65.11895       67.11591        1.18040
O         64.75914       66.50328        0.19139
H         63.16251       66.89401        2.07780
H         64.55310       66.89561        3.23469
H         64.02107       68.43833        2.45692
N         66.37729       67.61349        1.28330
C         67.43014       67.50484        0.27289
C         67.85072       66.04734        0.06033
O         68.79884       65.60790        0.69857
C         68.61471       68.35859        0.78921
C         69.81181       68.44486       -0.09361
O         70.87473       69.12498        0.36007
O         69.84799       67.91412       -1.18943
H         66.58573       68.13749        2.14921
H         67.08584       67.94871       -0.68694
H         68.95357       67.94628        1.76479
H         68.26355       69.40008        0.95709
N         67.18876       65.22730       -0.81199
C         67.50929       63.80414       -0.91933
C         68.68547       63.49698       -1.83684
O         69.07253       62.33681       -1.87937
C         66.26666       62.96190       -1.29372
C         65.08633       63.10000       -0.30481
C         65.44644       62.91308        1.18452
C         66.10358       61.55882        1.49997
N         66.42940       61.46184        2.92296
H         66.38587       65.59654       -1.34157
H         67.83503       63.44818        0.07840
H         66.56300       61.89111       -1.31691
H         65.91154       63.22619       -2.31427
H         64.30407       62.36404       -0.59189
H         64.63840       64.10610       -0.41504
H         64.51513       63.01277        1.78295
H         66.12401       63.73365        1.50382
H         67.04280       61.44090        0.91917
H         65.41541       60.73308        1.21710
H         67.08195       62.23336        3.19571
H         65.55773       61.51880        3.49746
H         66.89989       60.54628        3.10631
N         69.33209       64.45399       -2.56517
C         70.53155       64.17025       -3.35718
C         71.76279       64.90230       -2.80793
O         72.82924       64.76650       -3.39098
C         70.25389       64.40448       -4.85568
C         69.81058       65.79265       -5.18884
O         68.70470       65.98047       -5.66908
O         70.63903       66.83000       -4.99568
H         68.99099       65.42651       -2.54127
H         70.80055       63.09329       -3.29281
H         69.45326       63.69501       -5.16433
H         71.15941       64.16164       -5.45322
N         71.71865       65.59446       -1.62819
C         72.89375       66.11547       -0.93730
C         73.60044       67.30216       -1.57025
O         74.58926       67.73436       -0.99468
H         70.83331       65.64729       -1.10967
H         73.62044       65.28530       -0.80598
H         72.57900       66.44465        0.07776
N         73.17726       67.89633       -2.72033
C         73.87379       69.03546       -3.33643
C         73.93544       70.30155       -2.47547
O         74.66443       71.20991       -2.84868
C         73.27617       69.35644       -4.72938
C         71.78055       69.57320       -4.75386
O         71.21691       69.71558       -5.82610
O         71.04735       69.48063       -3.62729
H         72.35872       67.49507       -3.19264
H         74.93024       68.72583       -3.49731
H         73.47327       68.47679       -5.37933
H         73.79455       70.23127       -5.17786
N         73.20515       70.44810       -1.33717
C         73.27193       71.61783       -0.46812
C         72.02558       72.47542       -0.54264
O         71.94425       73.43674        0.21078
H         72.55247       69.70659       -1.08164
H         74.12817       72.27548       -0.73193
H         73.43293       71.26773        0.57436
N         71.05412       72.24792       -1.47163
C         69.89932       73.11682       -1.67142
C         68.58671       72.35206       -1.62921
O         68.57241       71.12737       -1.61118
C         70.03966       73.85775       -3.03883
C         71.00016       75.03942       -2.92005
O         70.51608       73.00737       -4.05374
H         71.16709       71.46214       -2.12366
H         69.82602       73.87111       -0.85671
H         69.06753       74.29435       -3.35667
H         70.01789       72.15568       -3.99585
H         70.59600       75.77496       -2.19121
H         72.00704       74.71076       -2.59051
H         71.09013       75.54796       -3.90437
N         67.42511       73.06560       -1.59104
C         66.08172       72.50206       -1.59872
C         65.33007       73.11159       -2.77848
O         65.31882       74.32843       -2.92022
C         65.34084       72.80354       -0.25763
C         66.13203       72.23472        0.95117
C         63.91650       72.20457       -0.29410
C         65.49849       72.56033        2.30912
H         67.49594       74.09537       -1.54512
H         66.11802       71.39305       -1.70116
H         65.25871       73.90657       -0.13687
H         67.15032       72.67757        0.95727
H         66.23381       71.13071        0.85793
H         63.33663       72.62037       -1.13778
H         63.95873       71.09846       -0.39677
H         63.33734       72.45738        0.61474
H         66.14850       72.17866        3.12389
H         65.38604       73.65882        2.42914
H         64.50903       72.07465        2.42956
N         64.61932       72.32080       -3.62282
C         63.82200       72.79947       -4.74651
C         62.35360       72.71255       -4.37986
O         62.04391       72.32132       -3.26846
C         64.11448       71.93567       -6.00421
C         65.58768       71.98696       -6.39714
O         63.75052       70.60156       -5.75546
H         64.56666       71.32344       -3.40736
H         64.04887       73.86559       -4.96946
H         63.51475       72.33016       -6.85481
H         63.67613       70.14771       -6.63514
H         65.90039       73.02954       -6.61111
H         66.19993       71.57713       -5.57227
H         65.75939       71.36754       -7.30392
N         61.37769       73.06376       -5.25263
C         59.95889       72.89556       -4.94174
C         59.63427       71.41509       -4.72850
O         59.03183       71.07967       -3.71979
C         59.06862       73.51355       -6.04103
C         59.26721       75.03571       -6.12324
O         59.34531       72.92641       -7.28357
H         61.65475       73.43876       -6.17282
H         59.71360       73.44610       -4.00369
H         58.00731       73.31944       -5.75809
H         58.57196       73.13645       -7.86832
H         58.58842       75.46550       -6.88884
H         59.02954       75.50632       -5.14492
H         60.31031       75.29777       -6.39732
N         60.06694       70.47465       -5.61858
C         59.85373       69.03045       -5.47686
C         60.32201       68.51163       -4.12112
O         59.52299       67.91764       -3.40974
C         60.60795       68.26360       -6.60232
C         59.78927       68.03312       -7.88713
C         59.22101       69.24552       -8.63718
C         60.26709       70.11904       -9.34241
N         59.60157       71.11225      -10.18983
H         60.62393       70.80879       -6.41499
H         58.76838       68.79469       -5.54119
H         60.81757       67.22895       -6.24712
H         61.59948       68.72618       -6.80197
H         58.91806       67.40818       -7.59313
H         60.40145       67.42903       -8.59344
H         58.58789       69.85843       -7.96083
H         58.56254       68.82777       -9.43039
H         60.91404       69.48320       -9.98563
H         60.91580       70.63026       -8.60360
H         59.05707       70.63077      -10.94293
H         58.94718       71.69783       -9.62559
H         60.31613       71.73016      -10.63640
N         61.60466       68.67961       -3.71147
C         62.13969       68.16087       -2.44906
C         61.34945       68.70431       -1.26736
O         60.86323       67.92209       -0.46250
C         63.63346       68.53615       -2.33626
C         64.48240       67.81951       -3.41309
C         65.87040       68.38451       -3.51447
O         66.02754       69.55154       -3.81940
O         66.95937       67.61952       -3.35365
H         62.22387       69.21260       -4.33634
H         62.06733       67.04987       -2.42980
H         64.03605       68.27773       -1.33842
H         63.70343       69.63181       -2.43781
H         64.03135       67.94366       -4.41760
H         64.51527       66.73075       -3.18872
N         61.14840       70.03867       -1.12715
C         60.37366       70.61878       -0.05357
H         59.34328       70.20348       -0.05759
H         60.86179       70.41344        0.92101
H         60.30622       71.71996       -0.19466
H         61.53836       70.66433       -1.83003
Ca        68.90493       68.74742       -3.64231
O         67.70306       68.41849       -6.81103
H         67.37055       69.01811       -7.52464
H         68.65616       68.27079       -7.03695
O         68.61734       71.28057       -5.74501
H         68.56152       72.23621       -5.99963
H         68.89610       70.82048       -6.57301

Ca 1.0



