%chk=holoCaM.loop1.water2.frame329.chk
%nprocshared=20
%mem=10GB
%nosave
#b3lyp/svp scf=(tight,noincore,xqc) Test 
#IOP(5/87=12) Density=Current Pop=(MK,readradii) iop(6/33=2) iop(6/42=6)

holoCaM.loop1.water2.frame329 

   0  1 
C         88.66655       54.93391       -9.13691
C         88.91711       54.85509      -10.60838
O         89.23085       55.87151      -11.21305
H         87.62794       54.61154       -8.92065
H         89.38145       54.27110       -8.60572
H         88.80771       55.97475       -8.77399
N         88.82365       53.65981      -11.25633
C         89.12107       53.53999      -12.67309
C         88.07629       54.29289      -13.48768
O         86.90976       53.92500      -13.46355
C         89.18091       52.06549      -13.10021
C         89.82933       51.90578      -14.43889
O         90.41198       52.95375      -15.05424
O         89.92739       50.79334      -14.92720
H         88.59321       52.81500      -10.71032
H         90.13969       53.97115      -12.81273
H         88.16075       51.62407      -13.09746
H         89.81071       51.49209      -12.38544
N         88.42869       55.41123      -14.17013
C         87.46899       56.29414      -14.82415
C         86.87871       55.72933      -16.11032
O         85.75751       56.10539      -16.42339
C         88.10740       57.67075      -15.11413
C         88.57766       58.36267      -13.81904
C         89.20741       59.72777      -14.10364
C         89.70308       60.37250      -12.80196
N         90.31356       61.67488      -13.06016
H         89.40824       55.70664      -14.10280
H         86.63303       56.48953      -14.11388
H         87.35215       58.32610      -15.60264
H         88.96602       57.54423      -15.80990
H         89.33518       57.73997      -13.30148
H         87.70973       58.49332      -13.13551
H         88.45574       60.38986      -14.58554
H         90.06948       59.59729      -14.79426
H         90.45353       59.70668      -12.32511
H         88.85295       60.49783      -12.09500
H         89.60463       62.32749      -13.46586
H         90.66499       62.07151      -12.15863
H         91.11691       61.57145      -13.72175
N         87.59054       54.92201      -16.95546
C         87.08113       54.50206      -18.26986
C         86.90309       52.99187      -18.41407
O         86.45225       52.56064      -19.46689
C         87.95831       55.09207      -19.39617
C         89.37774       54.59852      -19.43780
O         90.13194       55.01870      -20.30009
O         89.82893       53.69489      -18.55168
H         88.53970       54.63698      -16.67522
H         86.06705       54.92654      -18.43408
H         87.97462       56.19785      -19.28285
H         87.48845       54.85855      -20.37663
N         87.16212       52.13221      -17.39221
C         86.85140       50.71368      -17.44918
C         87.70804       49.91033      -18.40301
O         87.16879       49.17230      -19.21470
H         87.51223       52.49623      -16.49460
H         85.77165       50.57269      -17.67597
H         87.03287       50.28448      -16.43947
N         89.05906       49.91630      -18.26074
C         89.95393       48.91988      -18.84814
C         90.59817       48.11437      -17.71089
O         91.54743       47.38428      -17.95902
C         90.97111       49.56193      -19.83163
C         91.63402       50.78051      -19.28194
O         92.27765       50.72213      -18.11433
O         91.46723       51.86164      -19.82236
H         89.47119       50.58269      -17.58908
H         89.40236       48.17217      -19.45891
H         90.41777       49.87070      -20.74571
H         91.73208       48.81309      -20.13926
N         90.05058       48.11714      -16.45236
C         90.52386       47.30476      -15.34412
C         91.83487       47.75388      -14.73802
O         92.26213       47.09937      -13.79577
H         89.18975       48.64882      -16.26730
H         90.59318       46.24442      -15.67106
H         89.77059       47.35324      -14.52679
N         92.54188       48.82624      -15.20150
C         93.83816       49.21778      -14.65343
C         93.86602       50.67972      -14.22737
O         92.88892       51.39375      -14.40488
C         94.95253       48.88894      -15.67434
C         95.06517       47.37241      -15.90837
O         94.75429       49.57460      -16.88488
H         92.18173       49.36071      -16.00195
H         94.05981       48.63482      -13.73177
H         95.93354       49.20527      -15.26404
H         94.07820       49.07800      -17.41541
H         95.27782       46.85461      -14.94843
H         94.12452       46.95949      -16.33126
H         95.89327       47.16138      -16.61578
N         94.96404       51.16381      -13.58270
C         95.08217       52.49820      -13.00662
C         96.32717       53.19567      -13.55818
O         97.41497       52.63793      -13.49188
C         95.13364       52.34718      -11.45376
C         93.81249       51.75055      -10.87981
C         95.47903       53.65806      -10.73145
C         92.57296       52.65488      -10.99696
H         95.75064       50.51732      -13.41299
H         94.20080       53.12653      -13.24811
H         95.95191       51.63215      -11.21320
H         93.96044       51.53105       -9.80030
H         93.59241       50.78417      -11.38034
H         94.73213       54.44181      -10.95323
H         95.51256       53.48610       -9.63458
H         96.47861       54.02673      -11.03787
H         92.33527       52.89956      -12.05055
H         91.69368       52.13225      -10.56493
H         92.70597       53.59677      -10.42536
N         96.23388       54.47065      -14.03344
C         97.35724       55.30737      -14.45844
C         97.58895       56.36898      -13.39411
O         96.92723       56.31464      -12.37346
C         97.03939       55.98054      -15.82092
C         96.87162       54.97204      -16.96163
O         95.91156       56.81367      -15.70719
H         95.31614       54.92910      -13.98701
H         98.29343       54.71442      -14.55290
H         97.89174       56.62520      -16.12073
H         95.09489       56.28513      -15.89613
H         96.02976       54.28923      -16.74306
H         96.65687       55.51513      -17.90815
H         97.79991       54.37907      -17.09280
N         98.50631       57.36405      -13.53371
C         98.66530       58.41374      -12.52540
C         97.39244       59.24391      -12.38974
O         96.94738       59.45032      -11.26935
C         99.87467       59.33061      -12.81218
C        101.19458       58.55408      -12.77569
O         99.74002       59.97278      -14.05520
H         99.09641       57.38311      -14.37873
H         98.87938       57.94201      -11.53805
H         99.93191       60.07922      -11.98243
H         99.62465       60.94306      -13.87682
H        102.04582       59.25305      -12.91243
H        101.31429       58.04762      -11.79310
H        101.23463       57.78850      -13.57732
N         96.74276       59.73623      -13.48960
C         95.54583       60.58487      -13.40952
C         94.34075       59.91087      -12.73862
O         93.33569       60.58018      -12.54775
C         95.16904       61.10548      -14.82405
C         94.48716       60.03908      -15.70611
C         94.31425       60.46965      -17.17347
C         95.62362       60.48998      -17.99110
N         96.21572       59.15424      -18.12145
H         97.14235       59.52995      -14.41764
H         95.83055       61.47246      -12.80248
H         96.09766       61.48941      -15.29557
H         94.46478       61.96272      -14.73852
H         93.47490       59.85692      -15.28348
H         95.03095       59.08406      -15.66417
H         93.83534       61.47269      -17.20401
H         93.62462       59.75506      -17.67349
H         96.36410       61.18920      -17.54921
H         95.37998       60.86276      -19.01033
H         97.02979       59.20026      -18.77514
H         96.56913       58.81258      -17.20177
H         95.51491       58.48057      -18.50960
N         94.36786       58.60078      -12.35820
C         93.26342       57.88771      -11.73030
C         93.62983       57.59020      -10.28090
O         92.87194       57.95651       -9.39428
C         92.94657       56.60716      -12.54463
C         92.61757       56.95057      -14.01381
C         92.32159       55.74745      -14.86965
O         93.12429       54.83609      -14.96556
O         91.20254       55.70936      -15.61312
H         95.21081       58.04908      -12.53266
H         92.34334       58.50809      -11.71740
H         92.09142       56.07014      -12.07948
H         93.82900       55.93566      -12.52595
H         93.49100       57.46138      -14.46357
H         91.75152       57.64512      -14.05189
N         94.81255       56.99158       -9.96531
C         95.28272       56.75001       -8.61704
H         96.22104       57.32405       -8.45250
H         94.54378       57.05158       -7.84836
H         95.51196       55.67201       -8.49286
H         95.44596       56.72332      -10.71586
Ca        91.63732       52.40790      -16.82143
O         93.09479       55.38371      -18.20614
H         92.37869       55.31206      -18.88494
H         93.92712       55.47236      -18.73469
O         94.40593       52.63366      -17.68776
H         94.67128       53.04103      -18.54947
H         95.14240       52.00979      -17.47337

Ca 1.0



