%chk=holoCaM.loop2.water2.frame6.chk
%nprocshared=20
%mem=10GB
%nosave
#b3lyp/svp scf=(tight,noincore,xqc) Test 
#IOP(5/87=12) Density=Current Pop=(MK,readradii) iop(6/33=2) iop(6/42=6)

holoCaM.loop2.water2.frame6 

   -2  1 
C         91.53456       50.49453       36.64842
C         92.51082       49.60525       35.94017
O         92.62597       48.45170       36.32192
H         90.51543       50.06194       36.57545
H         91.82389       50.57274       37.71770
H         91.52370       51.51496       36.21191
N         93.24661       50.07899       34.89330
C         94.24916       49.29444       34.17444
C         95.36830       48.90377       35.12718
O         96.26182       49.70191       35.37344
C         94.71796       50.11266       32.93931
C         95.88510       49.59838       32.13497
O         95.90004       48.38163       31.55593
O         96.82492       50.34845       31.94440
H         93.07537       51.05114       34.59308
H         93.76112       48.37542       33.81442
H         94.99499       51.13405       33.28528
H         93.84753       50.21725       32.25574
N         95.29980       47.71287       35.79736
C         96.24530       47.32988       36.83980
C         97.57136       46.85483       36.27539
O         98.49176       46.64981       37.05473
C         95.64408       46.21472       37.70869
H         94.49376       47.09490       35.62080
H         96.40845       48.20919       37.50191
H         94.68379       46.55689       38.15156
H         95.44821       45.30517       37.09977
H         96.33132       45.94870       38.54019
N         97.72635       46.59733       34.94530
C         98.95781       46.08359       34.35835
C         99.50864       47.01314       33.27933
O        100.51059       46.66694       32.66903
C         98.74012       44.62338       33.90034
C         97.66684       44.37226       32.87731
O         97.38721       43.09999       32.53794
O         97.03611       45.28241       32.36608
H         96.92369       46.72737       34.31535
H         99.75925       46.01748       35.12693
H         98.46522       44.03844       34.80629
H         99.69640       44.20963       33.51439
N         98.97929       48.25606       33.06682
C         99.60000       49.25271       32.20751
C         99.46834       49.02004       30.71518
O         99.99250       49.84879       29.98338
H         98.18369       48.57569       33.63536
H        100.67509       49.33727       32.47716
H         99.15540       50.24331       32.42874
N         98.83691       47.93839       30.16736
C         98.90068       47.68483       28.72629
C         98.06797       48.64789       27.87598
O         98.28923       48.68336       26.67387
C         98.63723       46.19937       28.40621
C         97.19935       45.76197       28.51081
N         96.62917       45.07766       27.49076
O         96.55782       45.98387       29.52614
H         98.43146       47.22510       30.78882
H         99.96858       47.83626       28.44785
H         99.24664       45.58891       29.10774
H         99.00452       45.97973       27.38044
H         97.16356       44.84659       26.64078
H         95.66247       44.73823       27.55888
N         97.09734       49.44740       28.41363
C         96.36468       50.45667       27.65393
C         94.89355       50.13748       27.44995
O         94.19739       50.98903       26.91470
H         96.87044       49.36193       29.41166
H         96.80315       50.60438       26.64354
H         96.46178       51.42249       28.19577
N         94.36041       48.92374       27.77100
C         92.97462       48.53610       27.48448
C         92.27145       48.07420       28.75746
O         92.87674       48.13053       29.81853
C         92.98264       47.44137       26.38517
C         93.45624       48.02242       25.04414
O         93.81788       46.38295       26.77156
H         94.97549       48.20411       28.17935
H         92.38146       49.39340       27.09545
H         91.95002       47.06193       26.22970
H         93.71617       45.66474       26.09407
H         93.43495       47.23572       24.26049
H         92.77543       48.84108       24.72517
H         94.49011       48.41913       25.11821
N         90.98126       47.61177       28.72772
C         90.25443       47.17212       29.91904
C         89.95335       45.67544       29.81207
O         89.21137       45.28197       28.92174
C         88.91412       47.96941       30.07983
C         89.11820       49.50411       30.03617
C         88.20616       47.56089       31.38488
C         87.79333       50.28283       30.06644
H         90.48639       47.56358       27.82486
H         90.87392       47.35018       30.82532
H         88.25578       47.70404       29.22176
H         89.62219       49.77275       29.08386
H         89.76108       49.83486       30.87984
H         87.20675       48.02432       31.48487
H         88.01853       46.48058       31.38986
H         88.82430       47.82972       32.26800
H         87.13373       49.95707       29.23272
H         87.25410       50.14842       31.02588
H         87.99077       51.36848       29.95601
N         90.48010       44.78357       30.70437
C         90.10085       43.36743       30.75039
C         88.75727       43.21870       31.44333
O         88.22214       44.21274       31.90025
C         91.14039       42.55225       31.54822
C         92.49296       42.58429       30.90759
O         93.54304       43.09529       31.57760
O         92.65167       42.12512       29.78745
H         91.13722       45.13241       31.41204
H         90.04714       42.95942       29.71619
H         90.83237       41.48728       31.60724
H         91.20946       42.95196       32.58309
N         88.13888       42.01243       31.57821
C         86.86726       41.88616       32.28328
C         87.01413       42.19431       33.78154
O         86.28833       43.06982       34.23016
C         86.16462       40.54877       31.96696
C         84.80759       40.44213       32.63122
C         83.81545       41.42200       32.42186
C         84.51773       39.34904       33.46523
C         82.57001       41.31312       33.04562
C         83.26520       39.23886       34.07710
C         82.29395       40.22161       33.87080
H         88.56150       41.17853       31.14114
H         86.18467       42.65130       31.85152
H         86.79220       39.68212       32.23476
H         86.01412       40.49698       30.86654
H         83.99757       42.27571       31.78315
H         85.25756       38.57750       33.63730
H         81.81781       42.07542       32.88654
H         83.04755       38.39041       34.71213
H         81.32656       40.13673       34.34828
N         87.92363       41.58784       34.62357
C         88.08294       41.93032       36.04351
C         88.42805       43.38404       36.34986
O         88.51837       43.72903       37.52073
C         89.26649       41.06852       36.49863
C         89.13469       39.86110       35.60939
C         88.81053       40.50324       34.26227
H         87.13804       41.64541       36.55687
H         90.22215       41.56261       36.20002
H         89.30103       40.87133       37.59186
H         90.01378       39.18319       35.60052
H         88.24166       39.29082       35.95573
H         89.71288       40.92679       33.77113
H         88.35056       39.72124       33.63984
N         88.64413       44.28549       35.35744
C         88.96857       45.68404       35.56027
C         87.70351       46.48895       35.34373
O         87.33203       47.25587       36.22078
C         90.11673       46.07080       34.60675
C         91.36393       45.21167       34.90010
C         92.51048       45.50197       33.98732
O         92.40338       46.41801       33.01437
O         93.56749       44.91068       34.13918
H         88.58226       43.98333       34.38136
H         89.31444       45.87582       36.60164
H         90.36608       47.14750       34.73610
H         89.79894       45.91001       33.55274
H         91.12341       44.13363       34.78878
H         91.69450       45.40103       35.94369
N         86.93287       46.29056       34.23973
C         85.64849       46.92646       34.05991
H         84.97940       46.66263       34.90785
H         85.76911       48.02638       34.00015
H         85.17737       46.55806       33.12273
H         87.23227       45.62062       33.52581
Ca        94.28544       46.91035       31.93914
O         93.60321       44.97684       29.25105
H         92.72389       45.24261       28.88555
H         93.82561       44.14986       28.75562
O         96.37321       42.64742       29.59802
H         96.66873       43.41912       30.14081
H         95.51750       42.37286       30.01056

Ca 1.0



