%chk=holoCaM.loop2.water2.frame157.chk
%nprocshared=20
%mem=10GB
%nosave
#b3lyp/svp scf=(tight,noincore,xqc) Test 
#IOP(5/87=12) Density=Current Pop=(MK,readradii) iop(6/33=2) iop(6/42=6)

holoCaM.loop2.water2.frame157 

   -2  1 
C        101.92222       75.22688      -14.98670
C        103.08577       74.41018      -14.50724
O        103.26857       74.26309      -13.30786
H        101.33148       75.61958      -14.13251
H        102.28590       76.07643      -15.60093
H        101.25912       74.58864      -15.61033
N        103.90220       73.81197      -15.41420
C        104.99410       72.92256      -15.04196
C        106.11423       73.67893      -14.33217
O        106.62149       74.63924      -14.89529
C        105.54930       72.23416      -16.30840
C        106.43559       71.06807      -15.98473
O        106.97610       70.44610      -16.88442
O        106.57881       70.65478      -14.71352
H        103.68814       73.94654      -16.41540
H        104.56851       72.12720      -14.39019
H        106.09624       72.97708      -16.92929
H        104.70960       71.82557      -16.91083
N        106.57100       73.27655      -13.10928
C        107.64541       73.94891      -12.37980
C        108.87084       73.05713      -12.14510
O        109.82787       73.55298      -11.56572
C        107.09046       74.43240      -11.03354
H        106.13517       72.45578      -12.67181
H        107.99739       74.83954      -12.94378
H        107.86474       74.98781      -10.46208
H        106.22727       75.11212      -11.19837
H        106.74844       73.56887      -10.42165
N        108.91993       71.74458      -12.53008
C        110.02693       70.84777      -12.17153
C        110.34356       69.76290      -13.21227
O        111.26752       68.99853      -12.96811
C        109.73473       70.20809      -10.79726
C        108.47553       69.39194      -10.76009
O        108.10845       68.90177       -9.70457
O        107.70794       69.24812      -11.85379
H        108.07436       71.33810      -12.93415
H        110.95865       71.44352      -12.05184
H        109.62642       71.02472      -10.05016
H        110.58739       69.56964      -10.48201
N        109.65879       69.62693      -14.38587
C        109.98937       68.63131      -15.39846
C        109.76269       67.17395      -15.01194
O        110.11970       66.32747      -15.81942
H        108.92407       70.29658      -14.62489
H        111.05851       68.76355      -15.67346
H        109.38310       68.82572      -16.30962
N        109.20720       66.78025      -13.82628
C        109.12027       65.36874      -13.43219
C        108.21229       64.50206      -14.31569
O        108.24630       63.29088      -14.15077
C        108.75383       65.23570      -11.93307
C        107.38161       65.72908      -11.55174
N        106.99783       65.70833      -10.25443
O        106.61486       66.15096      -12.40080
H        108.91558       67.49797      -13.15233
H        110.14780       64.95374      -13.52828
H        109.49928       65.81635      -11.34695
H        108.83281       64.17073      -11.62655
H        107.63483       65.36145       -9.52265
H        106.06693       66.04778       -9.97599
N        107.38212       65.03130      -15.25995
C        106.59786       64.23527      -16.19582
C        105.10044       64.30486      -15.96603
O        104.37523       63.83611      -16.83287
H        107.32100       66.04715      -15.35847
H        106.88494       63.16236      -16.17618
H        106.82636       64.61260      -17.21649
N        104.55810       64.78410      -14.80836
C        103.12040       64.78560      -14.53406
C        102.63517       66.16024      -14.09532
O        103.44115       67.04885      -13.85967
C        102.80309       63.75737      -13.40848
C        103.10816       62.31976      -13.83033
O        103.54072       64.05209      -12.24763
H        105.18704       65.09767      -14.05939
H        102.54573       64.50127      -15.44249
H        101.71229       63.76563      -13.17700
H        102.98786       64.66351      -11.69526
H        102.50733       62.04826      -14.72418
H        104.18627       62.18975      -14.05853
H        102.83711       61.62492      -13.00546
N        101.30516       66.35500      -13.86684
C        100.75931       67.50221      -13.15271
C        100.51127       67.04520      -11.72949
O        100.16904       65.89186      -11.49874
C         99.49628       68.09548      -13.85918
C         99.94908       68.94419      -15.07874
C         98.64848       68.95141      -12.89143
C         98.80703       69.58501      -15.87394
H        100.65974       65.57157      -14.05328
H        101.51771       68.31320      -13.06877
H         98.84213       67.25819      -14.18815
H        100.53769       68.30595      -15.77127
H        100.60635       69.76899      -14.72298
H         99.22538       69.81928      -12.52002
H         97.71895       69.31113      -13.37409
H         98.30390       68.34357      -12.02878
H         98.23525       70.30956      -15.25778
H         99.22965       70.15922      -16.72547
H         98.12124       68.80720      -16.26679
N        100.74507       67.91465      -10.71305
C        100.74907       67.55152       -9.30647
C         99.61715       68.24073       -8.58622
O         98.79045       68.88019       -9.22129
C        102.08674       68.00518       -8.69559
C        103.24024       67.63330       -9.55778
O        103.87628       68.63705      -10.17323
O        103.55561       66.47121       -9.75282
H        100.99402       68.88613      -10.94655
H        100.64679       66.45126       -9.17737
H        102.24515       67.61783       -7.66801
H        102.07558       69.11801       -8.64563
N         99.52637       68.16153       -7.23740
C         98.47794       68.79975       -6.46377
C         98.44196       70.32850       -6.65841
O         97.39848       70.80535       -7.07687
C         98.62779       68.38426       -4.98960
C         97.49359       68.86099       -4.13516
C         96.32328       68.09279       -4.03353
C         97.60159       70.06160       -3.41797
C         95.27440       68.51917       -3.21688
C         96.54787       70.48774       -2.60620
C         95.38641       69.71576       -2.50310
H        100.23315       67.60097       -6.73519
H         97.50475       68.38400       -6.81426
H         99.59395       68.70394       -4.56025
H         98.65901       67.27300       -4.93117
H         96.22946       67.16127       -4.57942
H         98.49894       70.66430       -3.48860
H         94.37754       67.91931       -3.13575
H         96.63431       71.41411       -2.05444
H         94.57390       70.04356       -1.86927
N         99.49387       71.17324       -6.38736
C         99.40456       72.62799       -6.50329
C         99.29697       73.10073       -7.94435
O         98.53562       74.02553       -8.19729
C        100.67635       73.11934       -5.79891
C        101.67152       72.01891       -6.07567
C        100.80441       70.76985       -5.90858
H         98.54981       73.04971       -5.92786
H        100.99604       74.15339       -6.05275
H        100.48557       73.08297       -4.70128
H        101.99472       72.11616       -7.13072
H        102.58661       72.03237       -5.44663
H        101.25958       69.94514       -6.49188
H        100.72785       70.51135       -4.83428
N        100.01305       72.51582       -8.94183
C         99.97583       72.95665      -10.33407
C         98.55596       72.88963      -10.86274
O         98.05636       73.88701      -11.36378
C        100.91219       72.08788      -11.19886
C        102.38530       72.20469      -10.75723
C        103.31242       71.32259      -11.54055
O        102.90586       70.60656      -12.44175
O        104.61529       71.29752      -11.21063
H        100.58610       71.69652       -8.70342
H        100.33830       74.00724      -10.40755
H        100.83499       72.40366      -12.26327
H        100.58796       71.03520      -11.11974
H        102.49974       71.90977       -9.69606
H        102.72066       73.25803      -10.86112
N         97.83013       71.74772      -10.73617
C         96.45725       71.64226      -11.17439
H         95.83634       72.40999      -10.66456
H         96.39839       71.77960      -12.27368
H         96.05724       70.63853      -10.91452
H         98.25766       70.93450      -10.28109
Ca       105.66634       68.51611      -11.44729
O        103.44134       69.55727      -15.21689
H        103.56496       69.35940      -16.17867
H        102.94142       70.41034      -15.19908
O        105.82628       67.94064      -14.95215
H        105.46443       67.51963      -15.77244
H        106.75088       68.19749      -15.19257

Ca 1.0



