%chk=holoCaM.loop3.water3.frame302.chk
%nprocshared=20
%mem=10GB
%nosave
#b3lyp/svp scf=(tight,noincore,xqc) Test 
#IOP(5/87=12) Density=Current Pop=(MK,readradii) iop(6/33=2) iop(6/42=6)

holoCaM.loop3.water3.frame302 

   0  1 
C         24.58398       51.97697       81.38051
C         24.60801       52.85876       82.59126
O         23.55908       53.06248       83.18554
H         25.59820       51.85820       80.94594
H         24.20384       50.97345       81.66816
H         23.91252       52.41560       80.61415
N         25.77917       53.39724       83.03815
C         25.85348       54.19543       84.25493
C         25.07819       55.49744       84.05493
O         25.51500       56.36110       83.30753
C         27.33228       54.44100       84.61722
C         27.69287       55.00799       85.97092
O         28.86871       55.27158       86.14595
O         26.84004       55.16689       87.01419
H         26.64763       53.17810       82.52594
H         25.40966       53.56784       85.04710
H         27.75997       55.10634       83.83539
H         27.87381       53.47105       84.55866
N         23.85976       55.64686       84.63531
C         22.97220       56.78980       84.46119
C         23.58197       58.06839       85.01680
O         23.53879       59.07714       84.32700
C         21.60016       56.46498       85.10692
C         20.49749       57.47868       84.75683
C         19.12390       56.97284       85.23948
C         17.95956       57.92895       84.91975
N         17.76888       58.12725       83.48055
H         23.50677       54.85325       85.17257
H         22.77552       56.91687       83.37287
H         21.69435       56.36162       86.20955
H         21.27387       55.48306       84.69402
H         20.46839       57.58808       83.65297
H         20.72759       58.46438       85.21483
H         19.15920       56.83044       86.34153
H         18.90662       55.98597       84.77268
H         18.12532       58.90993       85.41558
H         17.02937       57.48554       85.34154
H         18.57945       58.63894       83.06622
H         17.64029       57.20737       82.99949
H         16.91161       58.70666       83.32889
N         24.19261       58.09389       86.23961
C         24.75337       59.31074       86.83561
C         26.28080       59.31728       86.89957
O         26.82661       60.27768       87.42727
C         24.12381       59.57079       88.22536
C         24.42283       58.54459       89.28680
O         23.94289       58.72780       90.53099
O         25.09044       57.55437       89.04563
H         24.26984       57.20862       86.76019
H         24.48836       60.19444       86.21490
H         23.02133       59.64357       88.11189
H         24.49092       60.55147       88.59925
N         27.04644       58.34472       86.32431
C         28.50137       58.43055       86.27320
C         29.21034       58.20406       87.59993
O         30.42458       58.35033       87.61710
H         26.59227       57.57656       85.81237
H         28.78213       59.42799       85.86865
H         28.89027       57.68156       85.55425
N         28.55498       57.84167       88.74404
C         29.24340       57.68464       90.02998
C         30.29089       56.57351       90.03754
O         31.09560       56.53650       90.95820
C         28.23778       57.46962       91.18419
C         27.54724       56.12061       91.14574
N         27.63646       55.27240       92.19655
O         26.89734       55.79089       90.16632
H         27.53687       57.72502       88.71034
H         29.76401       58.65014       90.21827
H         27.47259       58.27478       91.14801
H         28.78053       57.57172       92.14900
H         28.17386       55.52324       93.03884
H         27.15901       54.35961       92.17140
N         30.31741       55.61885       89.06732
C         31.30884       54.56296       88.98000
C         30.70810       53.18123       89.11659
O         31.44791       52.22774       88.92292
H         29.59363       55.62981       88.34418
H         32.10118       54.66845       89.75250
H         31.79561       54.64267       87.98420
N         29.40830       52.97957       89.49909
C         28.84424       51.64658       89.69569
C         27.55446       51.48776       88.91113
O         27.00354       52.47715       88.45082
C         28.53226       51.39969       91.19270
C         29.72345       51.57744       92.11258
C         30.28716       52.84970       92.33136
C         30.26635       50.47213       92.78976
C         31.37610       53.00889       93.18978
C         31.35789       50.63386       93.64994
C         31.91744       51.90406       93.85045
O         32.96874       52.07578       94.67668
H         28.80917       53.78765       89.71754
H         29.56414       50.87238       89.35255
H         28.14319       50.36167       91.28590
H         27.72584       52.08178       91.53894
H         29.88562       53.72891       91.85071
H         29.84871       49.48286       92.65122
H         31.79594       53.99540       93.34356
H         31.76657       49.77162       94.16097
H         33.37331       51.33852       95.15522
N         27.00253       50.24895       88.74443
C         25.68065       50.03976       88.15420
C         24.82324       49.17027       89.06708
O         25.32165       48.62817       90.04256
C         25.76581       49.44381       86.71851
C         26.47972       48.06916       86.69789
C         26.42964       50.46028       85.77270
C         26.45257       47.39237       85.32598
H         27.53195       49.42649       89.06953
H         25.16222       51.01493       88.07160
H         24.72556       49.30040       86.34978
H         25.96475       47.38503       87.40586
H         27.53613       48.17863       87.02339
H         25.87587       51.42037       85.81248
H         27.48611       50.64411       86.05876
H         26.39306       50.11836       84.71917
H         25.40425       47.25616       84.98434
H         27.01341       47.98001       84.57175
H         26.93434       46.39489       85.39861
N         23.49573       49.01747       88.79786
C         22.59178       48.18344       89.57903
C         21.83394       47.22780       88.66483
O         22.00158       47.27669       87.45416
C         21.61758       49.08728       90.35566
O         20.83558       49.85237       89.47666
H         23.09544       49.53693       88.00971
H         23.15744       47.58527       90.32557
H         22.20987       49.74054       91.04055
H         20.94128       48.48638       90.99878
H         20.99029       50.80837       89.69260
N         20.95117       46.33610       89.19625
C         20.10873       45.45907       88.38737
C         19.17726       46.27296       87.50881
O         19.03488       45.95360       86.33784
C         19.27719       44.54433       89.29037
H         20.85617       46.29854       90.22228
H         20.74353       44.79747       87.75564
H         18.61155       45.13654       89.95332
H         18.65613       43.86319       88.66894
H         19.95195       43.92258       89.91670
N         18.52714       47.35888       88.01558
C         17.64301       48.21932       87.23525
C         18.35438       48.81370       86.03340
O         17.85988       48.68266       84.92248
C         17.11782       49.36318       88.11630
H         18.68975       47.59792       89.00668
H         16.76599       47.62950       86.88828
H         16.56292       48.95215       88.98561
H         17.95416       49.98869       88.49866
H         16.42909       50.01289       87.53484
N         19.52085       49.49779       86.19355
C         20.21928       50.17842       85.10336
C         20.71525       49.22624       84.01500
O         21.15742       49.71595       82.98459
C         21.41302       50.97315       85.66876
C         20.97912       52.07839       86.65926
C         22.18783       52.67544       87.30812
O         22.91985       51.98454       87.99130
O         22.53083       53.94375       87.06157
H         19.90475       49.55677       87.14580
H         19.50823       50.89226       84.63123
H         21.98585       51.45401       84.84466
H         22.08769       50.24583       86.16385
H         20.32438       51.69533       87.46473
H         20.41821       52.85615       86.09691
N         20.68028       47.87062       84.16218
C         21.08310       46.93389       83.13271
H         21.40732       47.43860       82.19919
H         21.91738       46.30612       83.50885
H         20.22329       46.27349       82.88900
H         20.36034       47.46348       85.04469
Ca        24.74096       54.37416       87.21138
O         24.23178       52.56600       90.61838
H         23.25733       52.72280       90.70183
H         24.53305       52.38079       91.54302
O         22.29844       56.10639       89.01555
H         21.44284       55.67743       88.76362
H         22.05103       56.74670       89.72818
O         23.96738       55.37944       91.73735
H         24.38326       56.09093       91.19090
H         24.02062       55.71928       92.66524

Ca 1.0



