%chk=holoCaM-CaMKII.loop1.water2.frame246.chk
%nprocshared=20
%mem=10GB
%nosave
#b3lyp/svp scf=(tight,noincore,xqc) Test 
#IOP(5/87=12) Density=Current Pop=(MK,readradii) iop(6/33=2) iop(6/42=6)

holoCaM-CaMKII.loop1.water2.frame246 

   0  1 
C         98.64468      103.43975       44.94540
C         99.36806      103.28975       43.63899
O         98.84808      102.66357       42.72794
H         97.65566      102.93616       44.91397
H         99.25156      102.99922       45.76360
H         98.48467      104.51965       45.15647
N        100.57486      103.89036       43.47033
C        101.31280      103.87386       42.21227
C        101.91170      102.49174       41.94414
O        102.69024      102.02938       42.76559
C        102.40782      104.95929       42.28094
C        103.09890      105.22598       40.97991
O        102.81575      104.60874       39.96865
O        104.01745      106.20167       40.92444
H        100.94199      104.44905       44.25813
H        100.61512      104.17859       41.40227
H        103.16084      104.69716       43.05587
H        101.92784      105.91837       42.57645
N        101.60596      101.78710       40.80946
C        102.10506      100.44044       40.51085
C        103.02377      100.38796       39.28700
O        103.54543       99.31674       39.00831
C        100.91198       99.49378       40.25360
C         99.78484       99.45199       41.30508
C        100.07547       98.75772       42.64891
C        100.96908       99.54220       43.61832
N        101.04658       98.87278       44.91506
H        100.97060      102.21175       40.12714
H        102.72701      100.06965       41.34059
H        101.27431       98.45893       40.06872
H        100.42968       99.84914       39.31378
H         98.97707       98.84955       40.83331
H         99.36756      100.46594       41.47225
H        100.48972       97.74228       42.46854
H         99.09080       98.64179       43.15244
H        100.54635      100.56028       43.76383
H        101.99254       99.62590       43.22694
H        101.65457       99.43658       45.55248
H        100.09398       98.79552       45.33931
H        101.46463       97.92079       44.80176
N        103.28562      101.48744       38.52640
C        104.22324      101.50376       37.39808
C        105.44669      102.38557       37.69627
O        106.34939      102.42561       36.87198
C        103.52444      101.86699       36.05437
C        102.81380      103.19466       36.01689
O        102.40293      103.63991       34.95757
O        102.61575      103.87682       37.15383
H        102.83128      102.36106       38.79601
H        104.64370      100.48623       37.24177
H        102.78820      101.07954       35.78348
H        104.30886      101.86925       35.26505
N        105.59219      103.03748       38.88832
C        106.81937      103.68921       39.32460
C        107.22634      104.91653       38.54137
O        108.35396      104.97712       38.07378
H        104.84236      102.99134       39.59010
H        107.64516      102.94555       39.32896
H        106.67164      104.02485       40.37490
N        106.37626      105.96847       38.42979
C        106.73690      107.27585       37.87930
C        106.46927      108.38283       38.89668
O        106.55000      109.54714       38.52936
C        106.03377      107.49939       36.51937
C        104.62102      107.00931       36.47336
O        103.63812      107.56118       37.19848
O        104.35933      106.04170       35.77600
H        105.41668      105.85115       38.78948
H        107.82342      107.34950       37.65230
H        106.59391      106.88344       35.78132
H        106.11098      108.55490       36.18047
N        106.21815      108.10571       40.21304
C        105.97902      109.13265       41.21429
C        104.65950      109.85699       41.04195
O        104.40340      110.75670       41.83068
H        106.25286      107.13502       40.55002
H        106.81981      109.85983       41.19837
H        105.95846      108.66020       42.22104
N        103.76874      109.53160       40.05896
C        102.49893      110.21788       39.86481
C        101.33690      109.24204       39.97366
O        101.48417      108.06833       39.65937
C        102.48277      110.97087       38.51283
C        103.52570      112.10324       38.47866
O        102.66474      110.08948       37.43404
H        103.98603      108.76747       39.40837
H        102.34998      110.98879       40.65290
H        101.49032      111.45440       38.38564
H        103.64030      109.97865       37.28364
H        103.32494      112.83467       39.28875
H        104.55439      111.70254       38.60709
H        103.47382      112.62997       37.50221
N        100.13701      109.68939       40.43279
C         98.94369      108.87059       40.61651
C         97.86875      109.38420       39.67185
O         97.62642      110.58306       39.61912
C         98.51970      108.90676       42.11565
C         99.58777      108.15552       42.96076
C         97.12728      108.27466       42.32890
C         99.40705      108.30350       44.47155
H        100.05710      110.68898       40.67911
H         99.13543      107.80594       40.36752
H         98.46289      109.97063       42.43544
H        100.59905      108.54919       42.72603
H         99.57590      107.07303       42.69694
H         97.12599      107.20832       42.02391
H         96.80941      108.34302       43.38776
H         96.35608      108.81694       41.74450
H         99.47878      109.37452       44.75538
H         98.43973      107.89131       44.81942
H        100.21479      107.74531       44.99147
N         97.15847      108.50169       38.91552
C         96.13995      108.87098       37.94171
C         94.75813      108.63095       38.52586
O         94.65728      108.18636       39.65953
C         96.33162      108.02350       36.64852
C         97.73119      108.17647       36.04946
O         96.11122      106.66661       36.93912
H         97.31102      107.49877       39.07058
H         96.21630      109.95241       37.69269
H         95.58856      108.36292       35.89206
H         95.91926      106.20584       36.08060
H         97.93516      109.23571       35.79426
H         98.49993      107.81235       36.76311
H         97.80815      107.56438       35.12429
N         93.63676      108.89125       37.80121
C         92.29059      108.56989       38.27503
C         92.17512      107.07939       38.55957
O         91.77151      106.70899       39.65197
C         91.21193      108.98973       37.24013
C         91.07579      110.51394       37.15610
O         91.51663      108.46242       35.97281
H         93.75067      109.29725       36.85954
H         92.07757      109.11782       39.22156
H         90.23086      108.58837       37.58724
H         90.70127      108.55101       35.41423
H         90.27859      110.77864       36.42892
H         90.78121      110.91963       38.14793
H         92.02488      110.98973       36.83576
N         92.52881      106.17216       37.60949
C         92.40144      104.72656       37.76541
C         93.15694      104.21453       38.98217
O         92.55838      103.52093       39.79327
C         92.86954      104.04627       36.46103
C         92.69874      102.52007       36.48092
C         92.88457      101.88119       35.09377
C         94.26643      102.12628       34.46831
N         94.37699      101.43909       33.18111
H         92.90522      106.53387       36.72028
H         91.32404      104.47708       37.89312
H         93.93134      104.30554       36.25796
H         92.24246      104.45537       35.63771
H         91.66407      102.27810       36.80813
H         93.40930      102.07301       37.20961
H         92.10356      102.27577       34.40671
H         92.72619      100.78632       35.20169
H         95.05937      101.75482       35.15351
H         94.42103      103.21476       34.30345
H         93.63850      101.78178       32.52379
H         95.31579      101.63526       32.76505
H         94.27516      100.40684       33.31558
N         94.46388      104.53397       39.18529
C         95.24493      104.06005       40.32900
C         94.56433      104.43531       41.63681
O         94.25828      103.54393       42.41705
C         96.69126      104.60846       40.26981
C         97.44453      104.06316       39.03932
C         98.84562      104.58998       38.92927
O         99.07690      105.90213       38.76907
O         99.78607      103.81920       38.91157
H         94.90717      105.15853       38.49994
H         95.30942      102.94913       40.29087
H         97.24295      104.29620       41.18355
H         96.66014      105.71493       40.24879
H         96.92194      104.33512       38.10218
H         97.47574      102.95347       39.10754
N         94.25329      105.72627       41.92548
C         93.54077      106.09977       43.12859
H         92.55694      105.58258       43.16121
H         94.13358      105.82588       44.02601
H         93.35857      107.19573       43.13714
H         94.50118      106.46334       41.25875
Ca       102.08947      106.00625       37.52748
O        101.04173      108.08350       35.83661
H        100.50328      107.68329       35.10940
H        100.81867      109.04706       35.81476
O         99.63034      104.94599       35.79194
H         99.99601      104.84986       34.87743
H         99.67220      104.03249       36.17119

Ca 1.0



