%chk=holoCaM-CaMKII.loop3.water2.frame385.chk
%nprocshared=20
%mem=10GB
%nosave
#b3lyp/svp scf=(tight,noincore,xqc) Test 
#IOP(5/87=12) Density=Current Pop=(MK,readradii) iop(6/33=2) iop(6/42=6)

holoCaM-CaMKII.loop3.water2.frame385 

   0  1 
C         62.59951       -5.29469       68.69548
C         62.92210       -4.33500       69.80016
O         62.72934       -4.67240       70.95972
H         61.84181       -4.84553       68.02060
H         63.52075       -5.51597       68.11600
H         62.19933       -6.24654       69.10526
N         63.43779       -3.11022       69.50238
C         63.82027       -2.12816       70.51179
C         63.02098       -0.83046       70.29229
O         62.22677       -0.79674       69.36123
C         65.35031       -1.94381       70.39015
C         66.01767       -1.34570       71.59146
O         65.40725       -1.12801       72.62324
O         67.32832       -1.07952       71.55678
H         63.59866       -2.87332       68.50994
H         63.59170       -2.52611       71.52410
H         65.56960       -1.34009       69.48204
H         65.83278       -2.93616       70.25740
N         63.16079        0.27226       71.09555
C         62.39551        1.50796       70.91600
C         63.27498        2.68552       70.48666
O         62.73566        3.71277       70.10090
C         61.61311        1.81713       72.21820
C         62.48981        2.38028       73.36556
C         61.69336        2.49019       74.67828
C         62.35829        3.38660       75.74470
N         63.69449        2.94555       76.13831
H         63.81277        0.24772       71.87798
H         61.65572        1.35142       70.10202
H         61.10255        0.88229       72.54023
H         60.82848        2.57510       72.00385
H         62.83533        3.39101       73.05762
H         63.38012        1.74465       73.54916
H         61.51729        1.46725       75.07959
H         60.70544        2.95214       74.46691
H         61.70484        3.39908       76.64519
H         62.42141        4.42620       75.35513
H         63.65877        1.98308       76.53589
H         64.34162        2.98471       75.32315
H         64.06304        3.59316       76.87214
N         64.63389        2.61933       70.57894
C         65.56759        3.68477       70.21799
C         66.67658        3.08963       69.34238
O         66.53793        1.95153       68.91123
C         66.06938        4.36482       71.51827
C         66.62325        3.37415       72.49019
O         67.68062        2.63141       72.14834
O         66.04280        3.15494       73.53836
H         65.06243        1.77813       70.98679
H         65.06911        4.49138       69.63563
H         65.19288        4.86244       71.99055
H         66.81585        5.15650       71.30587
N         67.80850        3.78981       69.03843
C         68.83253        3.28627       68.13196
C         70.16694        2.97510       68.78787
O         71.08929        2.67569       68.04203
H         67.95065        4.72892       69.43538
H         68.98399        4.05524       67.34350
H         68.50640        2.35774       67.61547
N         70.37020        2.98677       70.14314
C         71.68600        2.70196       70.73198
C         72.21132        1.28189       70.45427
O         73.37067        1.02844       70.75015
C         71.71852        2.98980       72.25407
C         70.96837        1.99887       73.10790
N         71.00720        2.09967       74.45461
O         70.35132        1.08330       72.59443
H         69.59394        3.25080       70.76235
H         72.39133        3.42367       70.26341
H         71.33137        4.01347       72.45017
H         72.77878        2.95691       72.58414
H         71.53722        2.85420       74.91293
H         70.52311        1.40680       75.04176
N         71.43453        0.31571       69.88276
C         71.95291       -0.96519       69.42598
C         71.93891       -2.10577       70.42890
O         72.17749       -3.21789       69.97820
H         70.46569        0.53833       69.61601
H         72.95203       -0.84388       68.95424
H         71.27254       -1.29983       68.61171
N         71.65065       -1.96160       71.75866
C         71.46181       -3.11840       72.64459
C         70.07457       -3.10512       73.26391
O         69.38212       -2.10240       73.16165
C         72.55350       -3.24256       73.73071
C         72.66864       -2.07565       74.68310
C         72.15455       -2.16995       75.98874
C         73.34306       -0.90588       74.29648
C         72.30584       -1.10946       76.88730
C         73.50615        0.14774       75.20160
C         72.98843        0.05157       76.49778
O         73.15810        1.07505       77.35924
H         71.51171       -1.01965       72.14387
H         71.51491       -4.05555       72.04956
H         73.54744       -3.42040       73.26642
H         72.33226       -4.16212       74.31562
H         71.63399       -3.06274       76.31250
H         73.76592       -0.81970       73.30358
H         71.90004       -1.19521       77.88784
H         74.04274        1.03759       74.89724
H         72.82442        1.04464       78.26740
N         69.59127       -4.21728       73.89746
C         68.26245       -4.27979       74.50597
C         68.35341       -4.59413       75.99097
O         69.40190       -5.00352       76.47163
C         67.32087       -5.26135       73.73900
C         67.88495       -6.70485       73.67171
C         67.04472       -4.70115       72.33569
C         66.94525       -7.69962       72.98094
H         70.18490       -5.05946       73.93367
H         67.79318       -3.27259       74.45711
H         66.34457       -5.28772       74.27337
H         68.05960       -7.06939       74.70585
H         68.85131       -6.71850       73.12463
H         67.97355       -4.64604       71.72934
H         66.28683       -5.29751       71.79020
H         66.62170       -3.68916       72.44199
H         66.79515       -7.44376       71.91180
H         67.39436       -8.71441       73.01066
H         65.96147       -7.72792       73.49451
N         67.29151       -4.30055       76.79411
C         67.31007       -4.38638       78.25021
C         66.05129       -5.06012       78.78303
O         65.20654       -5.48077       78.00360
C         67.41378       -2.95318       78.80706
O         68.57865       -2.32940       78.33829
H         66.46502       -3.87417       76.35606
H         68.19693       -4.95544       78.60616
H         67.41493       -2.93355       79.91873
H         66.53709       -2.35456       78.47809
H         69.33742       -2.72094       78.84570
N         65.86047       -5.17583       80.12970
C         64.65974       -5.74043       80.73755
C         63.42675       -4.92178       80.39503
O         62.47174       -5.48794       79.88584
C         64.81605       -5.80595       82.26245
H         66.60863       -4.84327       80.75696
H         64.52584       -6.78560       80.37832
H         63.91115       -6.26046       82.72026
H         65.69270       -6.43550       82.52455
H         64.96603       -4.79412       82.69579
N         63.36445       -3.58572       80.67246
C         62.18154       -2.76953       80.39577
C         61.89346       -2.57633       78.90478
O         60.88309       -1.95623       78.60123
C         62.32613       -1.39482       81.06301
H         64.17292       -3.14655       81.13930
H         61.30285       -3.26607       80.86555
H         62.48160       -1.52059       82.15615
H         63.18846       -0.83974       80.63657
H         61.40267       -0.79236       80.92020
N         62.70509       -3.07185       77.92217
C         62.43599       -2.90941       76.49335
C         62.11049       -4.24085       75.82649
O         61.83021       -4.23781       74.63504
C         63.66624       -2.30324       75.79329
C         64.09699       -0.95589       76.37402
C         65.34235       -0.47976       75.68305
O         65.34803        0.57234       75.06770
O         66.46242       -1.22330       75.73314
H         63.55182       -3.59142       78.17978
H         61.56131       -2.24181       76.33237
H         63.45255       -2.16935       74.70896
H         64.50169       -3.02229       75.89128
H         64.32114       -1.05204       77.45779
H         63.26923       -0.22885       76.24151
N         62.12596       -5.41910       76.51089
C         61.82887       -6.68491       75.88117
H         60.79614       -6.67244       75.47454
H         62.55506       -6.88024       75.06425
H         61.90769       -7.50322       76.62922
H         62.36017       -5.44018       77.50692
Ca        67.79144        0.56823       72.97334
O         68.20307        2.86818       75.44284
H         68.44469        3.64360       74.87623
H         68.62953        3.05701       76.31555
O         68.90006       -0.04533       76.33747
H         69.35861       -0.90088       76.14235
H         69.22201        0.21611       77.23612

Ca 1.0



