%chk=holoCaM-CaMKII.loop4.water1.frame309.chk
%nprocshared=20
%mem=10GB
%nosave
#b3lyp/svp scf=(tight,noincore,xqc) Test 
#IOP(5/87=12) Density=Current Pop=(MK,readradii) iop(6/33=2) iop(6/42=6)

holoCaM-CaMKII.loop4.water1.frame309 

   -3  1 
C         36.34111       21.32560       60.93583
C         34.90860       21.61306       60.59467
O         34.60832       21.85888       59.43552
H         36.97546       22.19294       60.66444
H         36.46563       21.11980       62.02099
H         36.67738       20.42824       60.37463
N         33.95482       21.55236       61.55995
C         32.53710       21.71922       61.28376
C         32.19513       23.17409       60.96491
O         32.61640       24.04704       61.71171
C         31.72460       21.25555       62.50610
C         30.28149       21.06835       62.16350
O         29.49628       20.77290       63.03814
O         29.86174       21.18719       60.89121
H         34.24487       21.29808       62.51784
H         32.27275       21.03587       60.44613
H         31.83915       21.98686       63.33677
H         32.08939       20.26532       62.85605
N         31.36907       23.50027       59.92416
C         30.98893       24.87132       59.59173
C         29.52759       25.12074       59.97787
O         29.30750       25.94259       60.85781
C         31.31002       25.16430       58.09253
C         32.82842       24.94207       57.83541
C         30.87749       26.58949       57.69988
C         33.27700       25.16493       56.38886
H         30.96846       22.74737       59.35422
H         31.59069       25.58404       60.20068
H         30.73443       24.45481       57.45927
H         33.08739       23.89242       58.09204
H         33.42273       25.61436       58.49212
H         31.04366       26.76913       56.61798
H         29.78996       26.73006       57.87038
H         31.43765       27.34786       58.28575
H         33.14756       26.22249       56.08347
H         34.35849       24.92527       56.30268
H         32.71568       24.50909       55.69382
N         28.47621       24.48521       59.37362
C         27.07873       24.76780       59.74055
C         26.69574       24.27443       61.14865
O         25.59695       24.58569       61.58643
C         26.08746       24.28663       58.64918
C         26.13933       22.81239       58.40302
O         25.88474       21.95645       59.40461
O         26.49604       22.38902       57.31595
H         28.67508       23.84309       58.59484
H         26.95802       25.87467       59.74802
H         26.33718       24.81547       57.70185
H         25.04985       24.57094       58.92693
N         27.55921       23.56934       61.93857
C         27.31839       23.27983       63.34719
C         26.21109       22.28836       63.65314
O         25.29788       22.65215       64.38059
H         28.48584       23.31689       61.57367
H         27.12248       24.23957       63.87447
H         28.24719       22.86258       63.78741
N         26.26787       20.99652       63.21084
C         25.32850       19.95213       63.63901
C         26.02122       18.75499       64.31361
O         25.31421       17.87386       64.78193
C         24.42590       19.50541       62.46676
C         25.12532       18.88334       61.28818
O         24.46748       18.50463       60.33299
O         26.45856       18.73891       61.26051
H         27.02682       20.74407       62.56917
H         24.63948       20.36754       64.40646
H         23.86668       20.39351       62.10258
H         23.68477       18.77115       62.85218
N         27.38029       18.65280       64.41119
C         28.08921       17.56767       65.07586
C         28.96175       16.75872       64.13119
O         29.68040       15.89748       64.61952
H         27.96721       19.38341       64.01454
H         27.39170       16.86322       65.57670
H         28.73528       18.01793       65.86040
N         28.91329       16.92213       62.77612
C         29.65423       16.08907       61.83273
C         30.40564       16.92060       60.80777
O         30.27604       18.13768       60.79181
C         28.68636       15.05106       61.19681
C         27.35372       15.56372       60.60213
C         27.45638       16.32532       59.30148
N         26.82469       15.86803       58.19373
O         28.07302       17.37638       59.24654
H         28.26253       17.60975       62.38276
H         30.43019       15.49859       62.36880
H         28.38662       14.38385       62.03509
H         29.21233       14.41240       60.45543
H         26.81251       16.17218       61.35356
H         26.72180       14.66712       60.42323
H         26.27364       14.99765       58.21532
H         26.86975       16.39305       57.30938
N         31.23177       16.30190       59.91643
C         31.95065       16.98692       58.84769
C         31.50970       16.36678       57.53418
O         31.63972       15.15742       57.39118
C         33.48927       16.84655       59.03356
C         34.24906       17.63521       57.94922
C         33.93739       17.35016       60.41479
H         31.35326       15.27946       59.99025
H         31.71726       18.07088       58.85241
H         33.77209       15.77299       58.95657
H         35.34574       17.50967       58.07450
H         33.98479       17.27786       56.93322
H         34.01207       18.71914       58.01794
H         33.45570       16.75934       61.22159
H         35.03722       17.23099       60.52518
H         33.67941       18.42269       60.54924
N         31.00356       17.12531       56.51968
C         30.56545       16.54669       55.25162
C         31.65033       16.70552       54.19803
O         32.71093       17.22251       54.51476
C         29.18232       17.11994       54.86218
C         29.22078       18.51739       54.29307
N         28.68309       19.56425       54.95116
O         29.71380       18.69891       53.19480
H         30.96360       18.14790       56.63086
H         30.41513       15.45236       55.37901
H         28.53395       17.08046       55.76317
H         28.70373       16.47506       54.09436
H         28.28099       19.44322       55.88623
H         28.69010       20.50386       54.52561
N         31.46629       16.25566       52.92560
C         32.50119       16.32304       51.89384
C         33.00056       17.74600       51.67662
O         34.20028       17.96487       51.75252
C         31.96628       15.75815       50.56220
C         33.02111       15.85352       49.48660
C         34.20624       15.10394       49.57647
C         32.84074       16.72986       48.40471
C         35.19699       15.23435       48.59927
C         33.83503       16.86411       47.43394
C         35.01812       16.11728       47.52871
O         35.98881       16.24429       46.60232
H         30.55527       15.83448       52.68694
H         33.36166       15.69541       52.21810
H         31.06848       16.34599       50.27005
H         31.64741       14.70000       50.68269
H         34.36551       14.42428       50.40461
H         31.93998       17.32602       48.32394
H         36.10809       14.65486       48.67945
H         33.68685       17.55479       46.61389
H         35.90753       16.85355       45.85470
N         32.13649       18.75309       51.38046
C         32.54810       20.14041       51.17882
C         33.29775       20.67969       52.38978
O         34.38273       21.21505       52.20851
C         31.33177       21.04045       50.86298
C         30.67877       20.67301       49.51520
C         29.54216       21.58806       49.14475
O         29.16357       22.59783       49.95338
O         28.95536       21.41671       48.08825
H         31.13975       18.51490       51.30597
H         33.23295       20.19986       50.30274
H         31.68721       22.09245       50.78792
H         30.58452       20.98097       51.68549
H         30.28972       19.63418       49.54272
H         31.44685       20.73974       48.71409
N         32.80108       20.55371       53.65485
C         33.49677       21.07747       54.83721
C         34.89349       20.49188       55.00333
O         35.70825       21.11380       55.67070
C         32.70227       20.79126       56.12661
C         31.33377       21.48673       56.14537
C         30.49940       21.11197       57.33731
O         29.26864       21.63500       57.46590
O         30.91028       20.33778       58.18576
H         31.90395       20.06193       53.76999
H         33.60402       22.17779       54.70951
H         33.27610       21.13900       57.01449
H         32.57221       19.69173       56.20540
H         30.75680       21.21948       55.24493
H         31.48332       22.58315       56.14141
N         35.23180       19.29496       54.45077
C         36.54760       18.69943       54.54097
H         37.26607       19.33960       55.09269
H         36.47279       17.71792       55.05384
H         36.93978       18.53626       53.51445
H         34.52113       18.76342       53.94454
Ca        27.76288       21.02881       60.15490
O         26.33175       19.47282       57.46875
H         26.15033       19.92484       56.60658
H         25.87686       18.59972       57.38221

Ca 1.0



