%chk=holoCaM.loop2.water2.frame323.chk
%nprocshared=20
%mem=10GB
%nosave
#b3lyp/svp scf=(tight,noincore,xqc) Test 
#IOP(5/87=12) Density=Current Pop=(MK,readradii) iop(6/33=2) iop(6/42=6)

holoCaM.loop2.water2.frame323 

   -2  1 
C         -1.88619       29.89468       89.30843
C         -3.25904       30.01513       89.90106
O         -3.70341       31.11829       90.18024
H         -1.24695       29.26581       89.96133
H         -1.96202       29.41493       88.30789
H         -1.41620       30.89273       89.18353
N         -4.01140       28.89753       90.07411
C         -5.39853       28.92852       90.51633
C         -5.52094       29.31109       91.99142
O         -4.92134       28.63934       92.81947
C         -6.02843       27.53373       90.30022
C         -7.52517       27.56191       90.36077
O         -8.15506       26.52203       90.26595
O         -8.18208       28.73284       90.41972
H         -3.59965       27.99476       89.78811
H         -5.93929       29.64485       89.85741
H         -5.62148       26.81954       91.04868
H         -5.77356       27.15309       89.28860
N         -6.32726       30.33788       92.39436
C         -6.55149       30.69691       93.79598
C         -8.00946       30.50563       94.23243
O         -8.29526       30.74037       95.39846
C         -6.12802       32.15428       94.00937
H         -6.82399       30.87868       91.67772
H         -5.93259       30.05856       94.46245
H         -5.05936       32.28341       93.73597
H         -6.74190       32.83404       93.37878
H         -6.25238       32.44771       95.07399
N         -8.98304       30.09964       93.36491
C        -10.39342       29.93660       93.71223
C        -10.89041       28.51661       93.41890
O        -11.40380       27.89728       94.34062
C        -11.23718       31.05491       93.05389
C        -10.86248       31.40809       91.64436
O        -10.99824       30.54420       90.63213
O        -10.41894       32.52151       91.40730
H         -8.73536       29.93756       92.38634
H        -10.55589       30.08951       94.80362
H        -11.05157       31.97881       93.64727
H        -12.32225       30.83024       93.13295
N        -10.76912       27.92505       92.19268
C        -11.23862       26.57357       91.88540
C        -12.24081       26.52435       90.73380
O        -12.69457       25.43685       90.40878
H        -10.29622       28.43361       91.44339
H        -11.72035       26.10853       92.77258
H        -10.36259       25.94723       91.61809
N        -12.66370       27.65538       90.09964
C        -13.72303       27.71101       89.08727
C        -13.37519       27.12354       87.70343
O        -14.21739       27.22115       86.82134
C        -14.21185       29.17946       88.96391
C        -13.20345       30.13996       88.39022
N        -13.48866       31.45876       88.31560
O        -12.12456       29.73646       87.99512
H        -12.29964       28.55018       90.43793
H        -14.59902       27.15341       89.48491
H        -14.48293       29.53402       89.98398
H        -15.12722       29.22199       88.33804
H        -14.38825       31.82364       88.65950
H        -12.80266       32.11777       87.92214
N        -12.20308       26.47512       87.43431
C        -11.91051       25.83315       86.15300
C        -11.38080       26.74317       85.04654
O        -11.06630       26.21169       83.99149
H        -11.54088       26.30433       88.19898
H        -12.80299       25.26688       85.80301
H        -11.10807       25.08469       86.32623
N        -11.24385       28.09347       85.19041
C        -10.70445       28.98246       84.15178
C         -9.57352       29.86634       84.69193
O         -9.26225       29.80871       85.87067
C        -11.85219       29.86605       83.58856
C        -12.82318       29.03601       82.74588
O        -12.56306       30.49345       84.62576
H        -11.56391       28.52384       86.06108
H        -10.27303       28.39909       83.30837
H        -11.45898       30.63642       82.88923
H        -11.96696       31.18614       85.01145
H        -13.61768       29.69275       82.33149
H        -12.28080       28.57535       81.89070
H        -13.29782       28.23387       83.34708
N         -8.95194       30.75734       83.85898
C         -7.96576       31.75332       84.28010
C         -8.63118       33.12057       84.27227
O         -9.40832       33.43075       83.38115
C         -6.67486       31.69976       83.39589
C         -5.81824       30.47822       83.82510
C         -5.84465       33.00213       83.50690
C         -4.54719       30.26555       82.99772
H         -9.24991       30.79407       82.87324
H         -7.65346       31.58041       85.33194
H         -6.97582       31.60791       82.32902
H         -6.43102       29.55507       83.75219
H         -5.50980       30.60819       84.88636
H         -6.43895       33.87652       83.16763
H         -5.50711       33.17639       84.54847
H         -4.96374       32.98366       82.83636
H         -4.00950       29.37098       83.37728
H         -4.80270       30.10658       81.93031
H         -3.84608       31.12007       83.08962
N         -8.33094       33.99182       85.27708
C         -8.95271       35.29199       85.48420
C         -7.91137       36.38422       85.32063
O         -6.76348       36.07595       85.03801
C         -9.50671       35.34760       86.92160
C        -10.34118       34.15871       87.28783
O         -9.78782       32.93451       87.20248
O        -11.44816       34.30217       87.77979
H         -7.62803       33.70655       85.96939
H         -9.77373       35.45279       84.75255
H        -10.07135       36.28821       87.09706
H         -8.64444       35.32791       87.62548
N         -8.24622       37.69831       85.47184
C         -7.27272       38.76619       85.28224
C         -6.15345       38.72873       86.32104
O         -5.00892       38.74265       85.88883
C         -7.94957       40.14747       85.16639
C         -6.95106       41.21873       84.78081
C         -6.18912       41.09807       83.60027
C         -6.77111       42.34995       85.59372
C         -5.25891       42.07860       83.25330
C         -5.84552       43.33587       85.23467
C         -5.08758       43.19787       84.06849
H         -9.22688       37.94425       85.67056
H         -6.81536       38.58973       84.28648
H         -8.47591       40.41752       86.09993
H         -8.71692       40.09387       84.36426
H         -6.30323       40.24551       82.94425
H         -7.34743       42.47172       86.50213
H         -4.67235       41.96866       82.34998
H         -5.71408       44.20742       85.86171
H         -4.36858       43.95828       83.79401
N         -6.34683       38.66389       87.67871
C         -5.25986       38.50156       88.63926
C         -4.33033       37.34897       88.28714
O         -3.12200       37.52854       88.26907
C         -5.98246       38.18344       89.96089
C         -7.25824       38.96952       89.81016
C         -7.63113       38.68176       88.35543
H         -4.70027       39.46087       88.71924
H         -6.29551       37.11476       89.99294
H         -5.38695       38.39048       90.87613
H         -8.05338       38.73459       90.55003
H         -6.99117       40.04742       89.90292
H         -8.11516       37.69004       88.23509
H         -8.30495       39.49123       88.02620
N         -4.85658       36.12256       88.00961
C         -4.05519       34.92337       87.76670
C         -3.26319       34.99536       86.46590
O         -2.36969       34.17999       86.28369
C         -4.97469       33.68675       87.70747
C         -5.79966       33.49213       88.99844
C         -6.84296       32.42174       88.87213
O         -6.98037       31.78373       87.84231
O         -7.68281       32.20670       89.89788
H         -5.88295       36.04553       88.00707
H         -3.34912       34.80503       88.61830
H         -4.38261       32.76492       87.51322
H         -5.66106       33.84141       86.85514
H         -6.35823       34.40964       89.26059
H         -5.12035       33.26014       89.84363
N         -3.57122       35.89914       85.49455
C         -2.87618       36.01007       84.22963
H         -2.03029       35.29783       84.14557
H         -3.59074       35.81460       83.40174
H         -2.48297       37.04299       84.12063
H         -4.36258       36.52892       85.63351
Ca       -10.18775       31.40919       88.75142
O         -9.55169       27.97773       87.90724
H         -9.24352       27.07083       87.65602
H        -10.00924       27.86274       88.77671
O         -6.88120       28.91444       87.27812
H         -6.51617       28.01353       87.09623
H         -6.21059       29.53244       86.89682

Ca 1.0



