%chk=holoCaM.loop4.water3.frame48.chk
%nprocshared=20
%mem=10GB
%nosave
#b3lyp/svp scf=(tight,noincore,xqc) Test 
#IOP(5/87=12) Density=Current Pop=(MK,readradii) iop(6/33=2) iop(6/42=6)

holoCaM.loop4.water3.frame48 

   -3  1 
C        107.32707       64.35981       18.80800
C        106.91842       65.79115       18.95654
O        105.88226       66.03534       19.55338
H        108.28354       64.21231       19.35537
H        106.56776       63.68955       19.27057
H        107.45553       64.09451       17.74241
N        107.72265       66.80265       18.50742
C        107.56288       68.15485       19.02618
C        108.24203       69.23545       18.17756
O        109.35793       69.00849       17.73191
C        108.28800       68.15571       20.39227
C        107.98611       69.35534       21.20633
O        107.04497       70.19770       20.78285
O        108.58774       69.56567       22.24479
H        108.62773       66.53595       18.09270
H        106.48242       68.38282       19.16641
H        109.38209       68.08984       20.21595
H        107.97564       67.29037       21.01048
N        107.69136       70.48798       18.04876
C        108.43026       71.64170       17.51205
C        108.41483       72.89421       18.43281
O        109.14114       73.82742       18.11748
C        107.91156       72.02030       16.09388
C        106.44792       72.53254       16.13788
C        108.07987       70.83497       15.12578
C        105.90337       72.94856       14.77196
H        106.73225       70.63382       18.38028
H        109.50054       71.35779       17.39938
H        108.55686       72.84281       15.70972
H        106.40352       73.42545       16.79768
H        105.77448       71.75708       16.55668
H        107.40890       69.99488       15.40295
H        107.85580       71.14421       14.08442
H        109.13155       70.47804       15.13190
H        104.89287       73.39003       14.89803
H        106.56925       73.70154       14.30045
H        105.80189       72.06933       14.10291
N        107.56926       73.03082       19.50788
C        107.38691       74.27198       20.28003
C        107.58900       74.13946       21.79993
O        107.55962       75.16657       22.46561
C        105.98382       74.87250       19.97816
C        104.78492       74.00056       20.29053
O        104.91433       72.76233       20.77751
O        103.66257       74.42053       20.07145
H        106.94576       72.26094       19.72593
H        108.13317       75.02796       19.94460
H        105.93951       75.12297       18.89741
H        105.86534       75.81956       20.54963
N        107.82738       72.95040       22.42400
C        108.12532       72.83760       23.84995
C        106.98367       73.15113       24.80863
O        107.26213       73.25983       25.99508
H        107.88617       72.10068       21.86268
H        108.98669       73.50336       24.07314
H        108.44658       71.79865       24.08019
N        105.68545       73.27950       24.40650
C        104.58713       73.58768       25.33390
C        104.23559       72.46556       26.33523
O        103.29957       72.65532       27.10071
C        103.32352       74.02830       24.55665
C        102.68661       72.97721       23.69753
O        103.25722       71.77415       23.52790
O        101.63457       73.22680       23.13277
H        105.47557       73.19551       23.40248
H        104.88015       74.48495       25.92277
H        103.57674       74.89500       23.90809
H        102.56462       74.36863       25.29354
N        104.93169       71.29390       26.41443
C        104.64828       70.24273       27.38592
C        103.62438       69.22497       26.92118
O        103.42829       68.25121       27.63486
H        105.76365       71.16478       25.83337
H        104.36139       70.67527       28.36975
H        105.58800       69.67256       27.54764
N        102.92902       69.37078       25.75770
C        101.94925       68.40334       25.27190
C        102.26748       68.00724       23.83712
O        103.15344       68.60201       23.24075
C        100.53787       69.02766       25.33163
C        100.24421       69.66381       26.70101
C         98.83791       70.19499       26.76229
N         98.60136       71.52233       26.88860
O         97.89875       69.41598       26.70057
H        103.06211       70.22111       25.20992
H        101.96193       67.49281       25.90957
H         99.78525       68.24084       25.10387
H        100.44945       69.82999       24.56473
H        100.95848       70.50152       26.86061
H        100.38923       68.92594       27.51854
H         99.37719       72.19969       26.92924
H         97.63494       71.87769       26.93327
N        101.53590       67.04846       23.19808
C        101.70137       66.72804       21.78151
C        100.47639       67.22088       21.03172
O         99.37226       67.14576       21.55260
C        102.03454       65.22147       21.54607
C        100.88133       64.28335       21.92783
C        102.44479       64.94187       20.08654
H        100.78851       66.57246       23.72294
H        102.56949       67.28686       21.37903
H        102.91794       64.97519       22.17680
H         99.99938       64.46699       21.27729
H        101.19311       63.22471       21.79640
H        100.58763       64.42118       22.98607
H        102.76919       63.88413       19.97171
H        101.60237       65.11977       19.38850
H        103.29656       65.58532       19.78734
N        100.61762       67.75018       19.78950
C         99.52996       68.28978       18.98531
C         99.16717       67.28610       17.90757
O         99.81413       66.26286       17.81753
C        100.01232       69.64113       18.39992
C         99.01025       70.37968       17.55479
N         97.83774       70.79626       18.08074
O         99.26970       70.62631       16.38642
H        101.55004       67.73224       19.37095
H         98.62727       68.43735       19.61564
H        100.92770       69.45644       17.79189
H        100.28783       70.30896       19.23788
H         97.60973       70.61264       19.06783
H         97.16040       71.30848       17.49778
N         98.09000       67.47106       17.10111
C         97.69500       66.51935       16.05636
C         98.56218       66.60544       14.79961
O         98.52452       65.66309       14.02074
C         96.18625       66.64152       15.73865
C         95.75039       68.06372       15.47278
C         95.96584       68.67534       14.23215
C         95.14428       68.80208       16.50642
C         95.58914       70.00976       14.03079
C         94.78502       70.13412       16.31117
C         95.00412       70.74451       15.07474
O         94.64968       72.03358       14.90408
H         97.49702       68.27869       17.30986
H         97.82641       65.49089       16.46822
H         95.65667       66.28842       16.64953
H         95.87166       65.96133       14.91660
H         96.41856       68.11552       13.42485
H         94.98205       68.35350       17.47934
H         95.75777       70.47394       13.06763
H         94.34402       70.69240       17.12751
H         94.77938       72.49678       14.06501
N         99.40145       67.65730       14.55648
C        100.34917       67.69879       13.43775
C        101.76022       67.34335       13.91587
O        102.67150       67.31488       13.10143
C        100.32729       69.08300       12.74763
C         98.97476       69.38917       12.09105
C         98.97474       70.73405       11.42057
O         98.72967       70.82788       10.22808
O         99.21905       71.84724       12.13826
H         99.44169       68.42513       15.23796
H        100.09228       66.92901       12.67628
H        101.10362       69.10637       11.95117
H        100.57064       69.86926       13.49627
H         98.19036       69.39918       12.86445
H         98.73776       68.60073       11.34131
N        101.98741       66.96781       15.20607
C        103.24927       66.46558       15.73724
C        103.14987       64.95384       15.91576
O        104.07192       64.25322       15.52520
C        103.52665       67.12236       17.10377
C        103.88560       68.61495       17.00136
C        104.00398       69.29055       18.34324
O        103.79136       68.61940       19.48736
O        104.28337       70.47575       18.39741
H        101.19711       66.95705       15.85773
H        104.10758       66.67068       15.06000
H        104.36907       66.60414       17.60340
H        102.62544       66.97699       17.72236
H        103.10854       69.15514       16.42434
H        104.86133       68.70635       16.47530
N        102.05218       64.38440       16.48760
C        101.87302       62.97080       16.72727
H        100.97592       62.61597       16.17518
H        102.75270       62.37462       16.41663
H        101.69477       62.81478       17.81264
H        101.27376       64.97468       16.75902
Ca       105.04621       70.71041       21.59404
O        105.85443       69.57713       24.03759
H        106.75047       69.75439       23.67085
H        106.02290       68.96196       24.79144
O        105.43867       67.80112       21.95468
H        104.86254       67.35603       21.29134
H        105.63931       67.09419       22.61496
O        102.20359       71.37844       20.34858
H        102.23133       72.08766       19.65979
H        102.31247       71.86567       21.19698

Ca 1.0



