%chk=holoCaM-CaMKII.loop4.water1.frame231.chk
%nprocshared=20
%mem=10GB
%nosave
#b3lyp/svp scf=(tight,noincore,xqc) Test 
#IOP(5/87=12) Density=Current Pop=(MK,readradii) iop(6/33=2) iop(6/42=6)

holoCaM-CaMKII.loop4.water1.frame231 

   -3  1 
C         73.35829       29.91879       32.57751
C         73.82369       30.65085       31.35632
O         73.24846       31.67932       31.03084
H         72.30095       29.61055       32.44505
H         73.97396       29.01422       32.76590
H         73.43885       30.58968       33.45858
N         74.88893       30.19605       30.64137
C         75.40415       30.90669       29.48257
C         74.41412       30.83392       28.33329
O         74.03666       29.73715       27.94337
C         76.74274       30.30751       29.03702
C         77.50135       31.23396       28.13666
O         77.09363       32.50006       27.91088
O         78.57919       30.87388       27.70510
H         75.37880       29.34801       30.96685
H         75.60086       31.95555       29.80372
H         76.58425       29.31910       28.55257
H         77.39669       30.15831       29.92373
N         73.95453       31.96966       27.74750
C         72.94976       31.98980       26.68788
C         73.48107       32.54615       25.36548
O         72.69877       32.59049       24.42570
C         71.64204       32.67197       27.20575
C         71.89499       34.07531       27.82157
C         70.96322       31.72329       28.21564
C         70.62975       34.77946       28.31713
H         74.32288       32.86390       28.09035
H         72.65881       30.95330       26.40597
H         70.93738       32.77293       26.35080
H         72.37521       34.72125       27.05651
H         72.56948       33.99633       28.69868
H         71.59904       31.56920       29.10846
H         69.97370       32.10288       28.53583
H         70.77744       30.73401       27.74396
H         70.89874       35.77972       28.71767
H         69.90200       34.90448       27.48980
H         70.15596       34.21891       29.14939
N         74.80062       32.86109       25.16656
C         75.35782       33.14131       23.83980
C         76.29477       32.00384       23.44464
O         76.04530       31.37365       22.42595
C         75.96576       34.56110       23.73711
C         77.16625       34.86250       24.58781
O         77.09360       35.81615       25.53540
O         78.23709       34.32440       24.36023
H         75.45722       32.80673       25.95495
H         74.54410       33.15030       23.07989
H         75.16030       35.28060       23.99963
H         76.25210       34.75554       22.67971
N         77.34485       31.63612       24.23643
C         78.18460       30.47458       23.98303
C         79.64324       30.83817       23.81911
O         80.23012       30.45256       22.81801
H         77.51850       32.15447       25.10661
H         77.84914       29.91039       23.08472
H         78.09100       29.79042       24.85301
N         80.30112       31.55944       24.77304
C         81.73290       31.86534       24.71200
C         82.49294       31.35177       25.93868
O         83.71224       31.45322       25.94205
C         81.94143       33.37581       24.43621
C         81.37531       34.32032       25.46170
O         80.92265       33.86393       26.63522
O         81.32838       35.51617       25.22541
H         79.75591       31.91416       25.56811
H         82.18525       31.33923       23.84345
H         81.42339       33.58993       23.47641
H         83.02052       33.60214       24.29905
N         81.85798       30.77175       27.00173
C         82.53402       30.18098       28.14440
C         82.27960       30.92346       29.44010
O         82.69404       30.41878       30.47151
H         80.83717       30.70854       27.01467
H         83.63401       30.13458       27.99934
H         82.16528       29.13674       28.24788
N         81.67633       32.15010       29.46710
C         81.51464       32.92870       30.69051
C         80.08023       33.38235       30.88294
O         79.24557       33.22227       30.00946
C         82.41909       34.18343       30.62497
C         83.91004       33.82237       30.58416
C         84.77580       35.05731       30.59694
N         84.73562       35.94799       29.57829
O         85.53127       35.25104       31.53782
H         81.38399       32.58725       28.58933
H         81.79857       32.32749       31.58080
H         82.25632       34.81125       31.52811
H         82.14494       34.79100       29.73336
H         84.14491       33.22534       29.67778
H         84.14314       33.20807       31.48175
H         84.11665       35.79928       28.76851
H         85.33482       36.78703       29.59528
N         79.76059       34.00905       32.04785
C         78.49640       34.66880       32.32376
C         78.83236       36.11688       32.62448
O         79.56459       36.36685       33.57131
C         77.78544       33.95736       33.51570
C         76.64198       34.78390       34.13010
C         77.22388       32.60212       33.05143
H         80.48206       34.06371       32.78207
H         77.81405       34.63858       31.44738
H         78.52534       33.78906       34.32945
H         76.18007       34.22663       34.97362
H         77.02934       35.73492       34.55065
H         75.85697       35.00777       33.38439
H         76.45072       32.75549       32.26499
H         78.02600       31.95844       32.63605
H         76.74972       32.06535       33.90065
N         78.29919       37.12673       31.87393
C         78.45740       38.52886       32.24773
C         77.27687       38.91434       33.10892
O         76.45286       38.05345       33.37954
C         78.70960       39.46637       31.03417
C         77.52224       39.82746       30.16322
N         76.89367       38.92316       29.38259
O         77.15120       40.99171       30.13226
H         77.61875       36.87974       31.14789
H         79.36172       38.63457       32.88580
H         79.52961       39.05869       30.40490
H         79.08162       40.42537       31.45804
H         77.20196       37.94783       29.33806
H         76.10346       39.21551       28.78756
N         77.14463       40.15616       33.64652
C         76.02204       40.45766       34.52648
C         74.68545       40.40222       33.78589
O         73.67192       40.16993       34.43024
C         76.21708       41.81469       35.22277
C         75.16904       42.05196       36.28241
C         75.07347       41.19289       37.39311
C         74.27733       43.12885       36.16980
C         74.09687       41.40508       38.36837
C         73.30114       43.33957       37.14762
C         73.20721       42.47678       38.24996
O         72.26924       42.66766       39.19883
H         77.87115       40.86579       33.47042
H         76.02428       39.66984       35.31279
H         76.20171       42.61544       34.45090
H         77.21292       41.83699       35.71731
H         75.75310       40.35735       37.50671
H         74.33369       43.80155       35.32337
H         74.03228       40.73452       39.21643
H         72.61794       44.17254       37.04589
H         71.63466       43.39676       39.15426
N         74.59755       40.64779       32.44421
C         73.33077       40.60335       31.71177
C         72.82791       39.17464       31.48953
O         71.71477       39.02342       31.00626
C         73.44835       41.32823       30.35016
C         73.85456       42.81020       30.47902
C         72.88022       43.60323       31.30586
O         71.71168       43.69444       30.96469
O         73.29561       44.21808       32.43010
H         75.45071       40.92499       31.94380
H         72.56681       41.14723       32.31013
H         72.46727       41.28470       29.82694
H         74.19637       40.80591       29.71478
H         73.90569       43.25919       29.46409
H         74.86514       42.88939       30.93109
N         73.57782       38.08531       31.82731
C         73.12802       36.70125       31.71696
C         72.96106       36.07749       33.10015
O         72.50972       34.94234       33.17198
C         74.14346       35.87035       30.89647
C         74.36297       36.42673       29.48660
C         75.37989       35.61760       28.72770
O         75.09283       35.13447       27.64614
O         76.62139       35.44362       29.21823
H         74.51234       38.23317       32.20406
H         72.13483       36.65698       31.21934
H         73.79113       34.81745       30.82172
H         75.11973       35.87508       31.42670
H         74.73194       37.46493       29.56439
H         73.40148       36.44061       28.93184
N         73.28985       36.74664       34.24481
C         73.10526       36.17706       35.56009
H         72.02767       35.97402       35.73385
H         73.68865       35.23801       35.65642
H         73.45730       36.89548       36.33260
H         73.68692       37.69148       34.20728
Ca        78.75715       33.81416       27.19400
O         79.22566       37.04735       27.80801
H         80.06195       36.89074       27.30295
H         78.92994       37.94783       27.52134

Ca 1.0



