%chk=holoCaM.loop1.water2.frame31.chk
%nprocshared=20
%mem=10GB
%nosave
#b3lyp/svp scf=(tight,noincore,xqc) Test 
#IOP(5/87=12) Density=Current Pop=(MK,readradii) iop(6/33=2) iop(6/42=6)

holoCaM.loop1.water2.frame31 

   0  1 
C         74.67802      100.65316       -7.74868
C         75.29642      100.68300       -9.11515
O         76.40784      101.17210       -9.24490
H         73.68565      100.15523       -7.76306
H         75.34169      100.09738       -7.05372
H         74.54798      101.69114       -7.37711
N         74.62141      100.19097      -10.19068
C         75.15716      100.18150      -11.54361
C         74.33147      101.14428      -12.38148
O         73.28085      100.77038      -12.88438
C         75.14301       98.72645      -12.05553
C         75.70307       98.54187      -13.43156
O         75.75299       97.42146      -13.90490
O         76.15450       99.58222      -14.14914
H         73.67027       99.81556      -10.05021
H         76.21349      100.53269      -11.55267
H         74.10166       98.33730      -12.04636
H         75.75264       98.10558      -11.36229
N         74.69309      102.46017      -12.43295
C         73.85630      103.50145      -13.02479
C         73.66289      103.41587      -14.53695
O         72.78122      104.11547      -15.01663
C         74.36340      104.91894      -12.64759
C         75.76697      105.26238      -13.18878
C         76.14531      106.71016      -12.85112
C         77.58294      107.03515      -13.28369
N         77.90844      108.43255      -12.99590
H         75.53639      102.73992      -11.91452
H         72.85123      103.39107      -12.55918
H         74.37990      105.01192      -11.53888
H         73.63642      105.66491      -13.03602
H         75.80212      105.13125      -14.29216
H         76.51227      104.59169      -12.72742
H         76.06367      106.86990      -11.75379
H         75.43770      107.39531      -13.36719
H         77.70470      106.84943      -14.37394
H         78.29013      106.37300      -12.73463
H         77.29116      109.06479      -13.55592
H         77.78360      108.63240      -11.97676
H         78.90431      108.61598      -13.25645
N         74.44729      102.65539      -15.35932
C         74.26763      102.63236      -16.81929
C         73.98063      101.23646      -17.36263
O         73.80387      101.10879      -18.56636
C         75.46664      103.30907      -17.52511
C         76.78176      102.59597      -17.39882
O         77.79902      103.13442      -17.80517
O         76.86692      101.41232      -16.77308
H         75.21872      102.11542      -14.94517
H         73.38739      103.24918      -17.10098
H         75.57652      104.32548      -17.08397
H         75.24800      103.43337      -18.60721
N         73.86968      100.15192      -16.54355
C         73.50701       98.82764      -17.01668
C         74.56112       98.20428      -17.89797
O         74.25572       97.81739      -19.01660
H         73.98514      100.26154      -15.52750
H         72.52862       98.87532      -17.54210
H         73.38616       98.15935      -16.13622
N         75.82162       98.02941      -17.42016
C         76.87490       97.30114      -18.12052
C         77.35077       96.10375      -17.29553
O         78.34413       95.49044      -17.66090
C         78.01568       98.26089      -18.52674
C         78.72279       99.00482      -17.42822
O         78.40288       98.84333      -16.13233
O         79.60203       99.79401      -17.72990
H         76.03236       98.40057      -16.48400
H         76.50115       96.88479      -19.08183
H         77.58335       99.02073      -19.21335
H         78.77759       97.68636      -19.09824
N         76.64609       95.66949      -16.20656
C         77.01381       94.51551      -15.40237
C         78.23785       94.71506      -14.53372
O         78.58034       93.77016      -13.83435
H         75.75499       96.12070      -15.96635
H         77.15436       93.63462      -16.06579
H         76.17442       94.28577      -14.71002
N         78.95391       95.87847      -14.50932
C         80.15424       96.05337      -13.69679
C         80.06020       97.27821      -12.79420
O         79.14844       98.08456      -12.93620
C         81.40225       96.15083      -14.61123
C         81.58517       94.89908      -15.48433
O         81.35497       97.30412      -15.41181
H         78.66649       96.65845      -15.10934
H         80.29230       95.17137      -13.03335
H         82.30761       96.22803      -13.97188
H         80.67142       97.16802      -16.11789
H         80.72396       94.76491      -16.17340
H         82.50597       94.99930      -16.09698
H         81.67653       93.99480      -14.84717
N         80.99323       97.45505      -11.81791
C         81.06565       98.59535      -10.90921
C         82.45190       99.21605      -11.03904
O         83.44245       98.50799      -10.90647
C         80.75149       98.13467       -9.44831
C         79.24980       97.73687       -9.35445
C         81.07521       99.24373       -8.42211
C         78.82086       97.17461       -7.99669
H         81.70400       96.71549      -11.69423
H         80.30842       99.36963      -11.16579
H         81.39115       97.25774       -9.20386
H         79.02611       96.95768      -10.11272
H         78.61645       98.62536       -9.57910
H         82.14739       99.52306       -8.46674
H         80.45753      100.14516       -8.60448
H         80.90324       98.89830       -7.38367
H         77.74368       96.90532       -8.03738
H         79.40664       96.26361       -7.75542
H         78.93774       97.91914       -7.18380
N         82.58559      100.55905      -11.22922
C         83.86222      101.26325      -11.27635
C         84.10949      101.94583       -9.95035
O         83.23737      101.93128       -9.09207
C         83.86896      102.32349      -12.41391
C         83.78642      101.68914      -13.80360
O         82.84309      103.27250      -12.22139
H         81.73611      101.12892      -11.22484
H         84.69456      100.54058      -11.42468
H         84.82799      102.88251      -12.39617
H         82.01807      102.95809      -12.67343
H         83.76006      102.48705      -14.57813
H         84.67167      101.04565      -13.98386
H         82.87030      101.07568      -13.87985
N         85.30526      102.54835       -9.69930
C         85.57551      103.23910       -8.44197
C         84.69892      104.47246       -8.28951
O         84.49343      104.90407       -7.16381
C         87.06463      103.61351       -8.30054
C         87.94112      102.35716       -8.20504
O         87.45864      104.40192       -9.39496
H         86.04308      102.49213      -10.41828
H         85.32052      102.54127       -7.61116
H         87.18809      104.18749       -7.35256
H         88.29022      104.87268       -9.12836
H         89.00521      102.64659       -8.08056
H         87.64048      101.75449       -7.32045
H         87.85004      101.72472       -9.11247
N         84.13680      105.08696       -9.37043
C         83.16244      106.16473       -9.24424
C         81.90621      105.60235       -8.60668
O         81.46841      106.10327       -7.58057
C         82.82424      106.76450      -10.63517
C         84.00605      107.49802      -11.30485
C         84.38955      108.79491      -10.57010
C         85.53296      109.53130      -11.27981
N         85.85343      110.78041      -10.58748
H         84.37939      104.75452      -10.31541
H         83.56122      106.97404       -8.60009
H         81.98133      107.48460      -10.54335
H         82.49052      105.94832      -11.31241
H         83.69271      107.77439      -12.33581
H         84.88406      106.82187      -11.38604
H         84.71627      108.57564       -9.53413
H         83.49959      109.46127      -10.53285
H         85.24036      109.76082      -12.32847
H         86.43495      108.87988      -11.30006
H         85.02317      111.41697      -10.59352
H         86.13787      110.58461       -9.60005
H         86.64485      111.25420      -11.07955
N         81.28746      104.53104       -9.17463
C         80.06766      103.91488       -8.65618
C         80.28154      103.21450       -7.31781
O         79.29839      102.76512       -6.74483
C         79.55108      102.87061       -9.67022
C         79.20783      103.51123      -11.02119
C         78.94931      102.49604      -12.08714
O         79.81283      101.71052      -12.43193
O         77.81405      102.54548      -12.77749
H         81.70991      104.14746      -10.03146
H         79.29602      104.70747       -8.53254
H         78.64926      102.35325       -9.28372
H         80.34912      102.11646       -9.80473
H         80.04512      104.12593      -11.40227
H         78.32933      104.18178      -10.89932
N         81.52254      103.04282       -6.77619
C         81.76727      102.34137       -5.53344
H         82.29486      103.01746       -4.82924
H         80.83236      101.98692       -5.05239
H         82.41284      101.46029       -5.73579
H         82.35233      103.39290       -7.26528
Ca        77.83120      101.61824      -14.79282
O         80.50384      103.42166      -15.40817
H         79.54671      103.64850      -15.51517
H         80.82863      103.28762      -16.33399
O         81.35050      100.22400      -15.63988
H         81.86819       99.61073      -16.21742
H         81.67072      101.11864      -15.91031

Ca 1.0



