%chk=holoCaM-CaMKII.loop4.water1.frame300.chk
%nprocshared=20
%mem=10GB
%nosave
#b3lyp/svp scf=(tight,noincore,xqc) Test 
#IOP(5/87=12) Density=Current Pop=(MK,readradii) iop(6/33=2) iop(6/42=6)

holoCaM-CaMKII.loop4.water1.frame300 

   -3  1 
C         58.62371       35.84133       77.61908
C         57.55105       36.67984       78.24624
O         56.44336       36.70046       77.73042
H         59.56799       35.88987       78.20122
H         58.28675       34.78268       77.59242
H         58.81867       36.18994       76.58492
N         57.79450       37.36676       79.39626
C         56.75161       38.09028       80.10572
C         56.29079       39.32498       79.33600
O         57.14101       40.12150       78.96289
C         57.23120       38.49945       81.51355
C         56.06178       38.83081       82.39559
O         56.24354       39.16801       83.55054
O         54.81167       38.65825       81.92687
H         58.73059       37.29711       79.82464
H         55.93131       37.36763       80.25723
H         57.94946       39.34552       81.45257
H         57.73774       37.63761       81.99943
N         54.96339       39.57364       79.10516
C         54.47757       40.72308       78.34251
C         53.73351       41.73291       79.23315
O         53.54442       42.85162       78.77622
C         53.59460       40.21138       77.15408
C         54.28389       39.08280       76.33602
C         53.11944       41.33304       76.21155
C         55.57822       39.48546       75.62682
H         54.26180       38.92141       79.47180
H         55.34901       41.27582       77.93043
H         52.68232       39.75070       77.59522
H         53.57127       38.70009       75.57279
H         54.50971       38.23123       77.00860
H         52.49963       40.90344       75.39486
H         52.47808       42.06346       76.74124
H         53.97873       41.87228       75.76271
H         56.33949       39.83449       76.35197
H         55.99042       38.60064       75.09690
H         55.39080       40.27791       74.87486
N         53.28722       41.43766       80.49704
C         52.61076       42.41475       81.36013
C         53.31067       42.59896       82.71532
O         52.83009       43.38994       83.51533
C         51.11183       42.06648       81.47937
C         50.81447       40.78470       82.19545
O         50.28348       39.85847       81.60385
O         51.06054       40.67867       83.51297
H         53.38981       40.48188       80.85889
H         52.62333       43.41715       80.87793
H         50.70064       42.01387       80.44648
H         50.57468       42.88368       82.00795
N         54.49246       41.97732       83.00577
C         55.30766       42.28077       84.17491
C         54.88156       41.68668       85.50730
O         55.61901       41.91679       86.45678
H         54.92989       41.37852       82.29466
H         55.41210       43.38457       84.27077
H         56.32760       41.88149       83.98592
N         53.75714       40.93164       85.70182
C         53.42360       40.41504       87.03644
C         54.39451       39.33564       87.52780
O         54.39244       39.05585       88.71816
C         51.94870       39.95807       87.15258
C         51.54659       38.77029       86.32486
O         50.27664       38.32836       86.37419
O         52.34725       38.19325       85.61779
H         53.11356       40.77580       84.91707
H         53.50857       41.27824       87.73517
H         51.29704       40.81034       86.86606
H         51.73846       39.70600       88.21450
N         55.23895       38.68383       86.67549
C         56.24512       37.71660       87.09743
C         56.00674       36.31711       86.56092
O         56.87741       35.47976       86.75421
H         55.18185       38.88495       85.67168
H         56.31488       37.64569       88.20391
H         57.22829       38.07732       86.72427
N         54.85067       35.96765       85.92527
C         54.56595       34.62398       85.42938
C         54.21720       34.65839       83.95044
O         54.13463       35.73314       83.36921
C         53.38784       34.01742       86.22181
C         53.70938       33.86437       87.71573
C         52.56295       33.21193       88.44669
N         51.93072       33.84978       89.45923
O         52.20508       32.08825       88.12495
H         54.11273       36.66824       85.81690
H         55.45279       33.96351       85.55126
H         53.15376       33.00987       85.81623
H         52.48637       34.65948       86.10030
H         53.92286       34.86289       88.15430
H         54.61257       33.22856       87.83969
H         52.21623       34.79544       89.75154
H         51.15034       33.39413       89.95554
N         54.01098       33.49076       83.27409
C         53.65266       33.42168       81.86320
C         52.35343       32.63989       81.72387
O         52.36849       31.42884       81.90310
C         54.82834       32.76243       81.07865
C         54.49696       32.46919       79.60920
C         56.07854       33.65866       81.13656
H         54.13510       32.59850       83.77761
H         53.48522       34.44047       81.45401
H         55.06758       31.78701       81.55853
H         53.62506       31.78893       79.52164
H         54.29398       33.40554       79.06444
H         55.35763       31.96417       79.12034
H         56.92886       33.17235       80.61297
H         55.87718       34.63719       80.64717
H         56.38890       33.84569       82.18525
N         51.17822       33.27534       81.42932
C         49.92146       32.54785       81.23029
C         49.90358       31.89344       79.85309
O         50.87698       32.01945       79.13251
C         48.66504       33.42769       81.48929
C         48.20221       34.34049       80.37281
N         48.94978       35.37042       79.93051
O         47.09898       34.15495       79.88029
H         51.18440       34.30125       81.39803
H         49.86173       31.76664       82.02137
H         48.80366       34.00477       82.42869
H         47.82127       32.72731       81.67959
H         49.86445       35.56514       80.33415
H         48.60031       35.99151       79.18760
N         48.82392       31.19339       79.40942
C         48.76120       30.55126       78.09417
C         48.93542       31.54174       76.94411
O         49.74088       31.27221       76.06423
C         47.42514       29.79397       77.94962
C         47.32062       29.03087       76.64710
C         48.25355       28.02839       76.32326
C         46.27800       29.30907       75.74776
C         48.14601       27.32326       75.12093
C         46.16947       28.59852       74.54865
C         47.10427       27.60276       74.23120
O         47.00988       26.90825       73.07941
H         48.01284       31.10388       80.03932
H         49.57750       29.79788       78.03611
H         46.58693       30.51920       78.04434
H         47.33586       29.06273       78.78226
H         49.06493       27.78889       76.99832
H         45.54509       30.07290       75.97507
H         48.87192       26.55571       74.88257
H         45.35744       28.82193       73.86847
H         46.29981       27.06518       72.44071
N         48.22472       32.70613       76.89134
C         48.33117       33.68491       75.80240
C         49.78173       34.05170       75.53877
O         50.23734       33.92691       74.41045
C         47.52446       34.95608       76.15992
C         47.50425       35.99582       75.02758
C         46.79317       37.24389       75.46717
O         45.78775       37.61907       74.88611
O         47.27633       37.96722       76.49648
H         47.59405       32.91364       77.67888
H         47.90013       33.24006       74.87781
H         47.96735       35.41537       77.06677
H         46.47482       34.67422       76.39495
H         46.99697       35.55653       74.14068
H         48.53690       36.28330       74.73746
N         50.57019       34.47298       76.56130
C         51.98719       34.79371       76.42531
C         52.75242       33.62453       75.82292
O         53.43409       33.81524       74.82507
C         52.56156       35.14555       77.80917
C         52.03450       36.48675       78.34032
C         52.53045       36.72806       79.73562
O         53.71544       36.62639       79.98771
O         51.67637       37.05251       80.72105
H         50.14097       34.52047       77.49759
H         52.12292       35.67238       75.75456
H         53.66869       35.23424       77.73448
H         52.30830       34.33027       78.52146
H         50.92705       36.52961       78.33891
H         52.40343       37.29134       77.67412
N         52.66414       32.37922       76.35809
C         53.35577       31.23707       75.80482
H         54.45281       31.39095       75.87011
H         53.08764       30.32287       76.37747
H         53.05796       31.08748       74.74510
H         52.06388       32.22804       77.17090
Ca        52.90071       38.66363       83.06092
O         50.05765       36.58427       83.12406
H         49.78295       36.83300       84.04149
H         49.47448       37.12647       82.53532

Ca 1.0



