%chk=holoCaM-CaMKII.loop2.water2.frame428.chk
%nprocshared=20
%mem=10GB
%nosave
#b3lyp/svp scf=(tight,noincore,xqc) Test 
#IOP(5/87=12) Density=Current Pop=(MK,readradii) iop(6/33=2) iop(6/42=6)

holoCaM-CaMKII.loop2.water2.frame428 

   -2  1 
C         79.61735       58.74688       19.13098
C         80.99227       58.46389       18.60332
O         81.64952       59.36146       18.09669
H         78.87583       58.08985       18.63022
H         79.60162       58.53563       20.22280
H         79.33791       59.80824       18.97070
N         81.50199       57.21296       18.73075
C         82.86837       56.85280       18.36658
C         83.16054       57.00530       16.87257
O         82.24294       57.11607       16.07064
C         83.10130       55.40705       18.84297
C         84.43433       54.81358       18.53425
O         85.61695       55.26572       19.04226
O         84.43840       53.82761       17.81390
H         80.89909       56.50222       19.17825
H         83.54554       57.52596       18.91381
H         82.32680       54.77199       18.34981
H         82.93213       55.32833       19.93155
N         84.46078       56.98347       16.44630
C         84.87940       57.01091       15.04911
C         86.31863       56.48347       14.90618
O         87.06641       56.99323       14.08344
C         84.73815       58.43686       14.48573
H         85.19340       56.89522       17.16020
H         84.23380       56.30662       14.47905
H         85.40595       59.12777       15.04805
H         85.02136       58.47136       13.41196
H         83.69667       58.80647       14.58130
N         86.74161       55.41017       15.64845
C         88.07410       54.79023       15.53711
C         88.24733       53.46528       16.32188
O         89.14738       52.71499       15.97375
C         89.22642       55.77192       15.87731
C         89.25284       56.23152       17.30877
O         90.12134       57.00304       17.68257
O         88.34033       55.79608       18.18858
H         86.04376       55.00576       16.27100
H         88.17142       54.50538       14.46728
H         89.16594       56.67067       15.23274
H         90.19545       55.27430       15.66043
N         87.43245       53.08955       17.35113
C         87.40701       51.76295       17.94499
C         88.32014       51.56080       19.13064
O         88.32069       50.45434       19.65263
H         86.71495       53.71948       17.67267
H         87.56935       50.99520       17.16155
H         86.37894       51.58967       18.34066
N         89.08553       52.55864       19.65863
C         89.91217       52.35788       20.85218
C         89.09971       52.07438       22.13232
O         89.71395       51.82596       23.16079
C         90.86648       53.55608       21.05899
C         90.19573       54.87608       21.33552
N         90.95137       55.97405       21.54697
O         88.98016       54.96725       21.37140
H         89.09497       53.47709       19.19350
H         90.56781       51.47869       20.66157
H         91.49093       53.67353       20.14704
H         91.54596       53.32970       21.90950
H         91.97891       55.92584       21.50380
H         90.50753       56.87300       21.76316
N         87.73214       52.06187       22.14528
C         86.92584       51.71079       23.30734
C         86.68172       52.84960       24.28451
O         85.97178       52.61769       25.25275
H         87.21943       52.21960       21.27379
H         87.36569       50.82659       23.81983
H         85.92181       51.40163       22.94408
N         87.22354       54.09133       24.11555
C         87.04392       55.19884       25.05649
C         86.54573       56.45682       24.34467
O         86.94110       56.68094       23.21188
C         88.39251       55.48244       25.78847
C         88.89926       54.21635       26.48870
O         89.43198       55.95433       24.95711
H         87.84203       54.24889       23.31676
H         86.30997       54.92790       25.84896
H         88.19462       56.25825       26.56002
H         89.10718       56.12289       24.04056
H         89.14992       53.43274       25.74009
H         89.82285       54.44564       27.05941
H         88.13525       53.81474       27.18677
N         85.69847       57.34559       24.94628
C         85.30062       58.59533       24.28774
C         86.48517       59.55799       24.24582
O         86.96989       59.98190       25.28543
C         84.04635       59.23917       24.95176
C         82.84021       58.27181       24.80754
C         83.71302       60.59516       24.28680
C         81.58521       58.72007       25.55270
H         85.33717       57.13118       25.88817
H         84.99178       58.35875       23.24883
H         84.26351       59.41630       26.02786
H         83.10898       57.27261       25.20752
H         82.58613       58.15237       23.73264
H         84.55202       61.30673       24.39989
H         83.50184       60.45990       23.20426
H         82.84196       61.08656       24.76035
H         81.80148       58.81098       26.63721
H         81.19582       59.68259       25.16670
H         80.78975       57.95871       25.40843
N         86.99116       59.93490       23.04089
C         88.10807       60.86075       22.84282
C         87.62438       62.30089       23.03634
O         86.43915       62.47850       23.24868
C         88.63532       60.66542       21.39852
C         89.11360       59.24708       21.13173
O         88.34360       58.17007       21.44738
O         90.24657       59.07276       20.71193
H         86.55159       59.52813       22.20637
H         88.92777       60.62166       23.55589
H         89.46391       61.37703       21.19077
H         87.81352       60.88579       20.68804
N         88.45598       63.38790       22.97787
C         87.93012       64.75880       23.04768
C         87.10903       65.07221       21.78492
O         85.94257       65.39787       21.96030
C         89.02911       65.80909       23.33816
C         88.47482       67.22077       23.34184
C         87.72316       67.70659       24.42836
C         88.70367       68.06477       22.24015
C         87.22346       69.01598       24.41239
C         88.18884       69.36444       22.22185
C         87.45363       69.84206       23.30864
H         89.47114       63.23932       22.87800
H         87.25420       64.83234       23.93208
H         89.85521       65.74365       22.62192
H         89.51128       65.60340       24.31857
H         87.53563       67.08063       25.29151
H         89.26706       67.71150       21.38641
H         86.65650       69.39304       25.25448
H         88.36070       70.00165       21.36371
H         87.06229       70.85194       23.29390
N         87.58716       64.97524       20.49157
C         86.77561       65.20290       19.28926
C         85.50208       64.37525       19.15114
O         84.76787       64.59838       18.19886
C         87.70883       64.80864       18.13811
C         89.04992       65.20524       18.68166
C         88.96278       64.69962       20.11886
H         86.51635       66.28467       19.27218
H         87.73424       63.69621       18.04394
H         87.43873       65.24123       17.15145
H         89.93036       64.83623       18.11507
H         89.07716       66.32103       18.69470
H         89.15785       63.61188       20.21512
H         89.71394       65.28881       20.65663
N         85.16925       63.41635       20.05349
C         83.94123       62.64175       20.01460
C         82.99508       63.21452       21.05022
O         81.86500       63.53153       20.70736
C         84.27586       61.16370       20.24771
C         85.19301       60.64643       19.12558
C         85.59728       59.23413       19.34341
O         86.34243       58.69225       18.54364
O         85.15182       58.55930       20.41757
H         85.80231       63.21716       20.83436
H         83.43619       62.71683       19.02549
H         83.34104       60.56001       20.26650
H         84.78743       61.04886       21.22965
H         86.12311       61.24985       19.07973
H         84.66969       60.71455       18.14849
N         83.42069       63.47385       22.31557
C         82.61086       64.16608       23.28975
H         81.70454       63.57511       23.52631
H         83.20000       64.32427       24.21958
H         82.32461       65.16438       22.89246
H         84.37536       63.23401       22.58585
Ca        86.97080       56.69187       20.28782
O         85.54500       54.03777       21.40320
H         84.83890       54.10786       22.08925
H         85.22706       53.32236       20.79626
O         83.77237       56.41928       22.06681
H         82.91491       55.93649       22.16601
H         83.50651       57.30724       21.72479

Ca 1.0



