%chk=holoCaM-CaMKII.loop2.water2.frame351.chk
%nprocshared=20
%mem=10GB
%nosave
#b3lyp/svp scf=(tight,noincore,xqc) Test 
#IOP(5/87=12) Density=Current Pop=(MK,readradii) iop(6/33=2) iop(6/42=6)

holoCaM-CaMKII.loop2.water2.frame351 

   -2  1 
C         43.95705       54.98948       49.38610
C         44.69614       55.47497       50.59661
O         45.56823       56.32206       50.46514
H         42.88126       55.25104       49.49634
H         44.33704       55.48363       48.46618
H         44.05663       53.89081       49.28592
N         44.34276       55.02521       51.83255
C         44.85426       55.63755       53.04872
C         46.32313       55.35961       53.30671
O         46.72433       54.20422       53.29757
C         44.04738       55.20427       54.29414
C         44.12528       56.26522       55.37110
O         44.24391       57.55854       54.97502
O         43.77501       55.99892       56.50684
H         43.58220       54.33124       51.90131
H         44.68228       56.71970       52.90245
H         44.36726       54.19935       54.65174
H         42.97131       55.11822       54.04573
N         47.15618       56.38129       53.64903
C         48.55453       56.21469       54.01336
C         48.83560       56.63322       55.46200
O         49.98548       56.51712       55.86403
C         49.40587       57.04189       53.04110
H         46.77335       57.32998       53.68097
H         48.85899       55.15040       53.91595
H         49.14425       58.12068       53.11308
H         50.48829       56.92133       53.25772
H         49.22115       56.70548       51.99794
N         47.87422       57.14672       56.29793
C         48.18560       57.66464       57.63546
C         47.13510       57.34723       58.71644
O         47.34058       57.76531       59.84782
C         48.50018       59.17089       57.52225
C         47.40243       59.97262       56.88613
O         46.20158       60.06165       57.47228
O         47.60268       60.56262       55.83652
H         46.92906       57.31754       55.93047
H         49.12483       57.20094       58.01124
H         49.41221       59.27709       56.89365
H         48.73768       59.58967       58.52371
N         46.03392       56.57408       58.48230
C         45.09921       56.15069       59.52816
C         44.23774       57.23474       60.17241
O         43.50920       56.89404       61.09432
H         45.90733       56.17025       57.54922
H         45.68317       55.64592       60.32897
H         44.40285       55.39462       59.10507
N         44.26166       58.54192       59.78361
C         43.52889       59.60373       60.48590
C         41.99891       59.58865       60.31184
O         41.35565       60.47899       60.85130
C         44.10807       60.99287       60.12725
C         43.88998       61.46725       58.71708
N         44.31574       62.70117       58.36669
O         43.33114       60.76150       57.89395
H         44.89823       58.80566       59.02623
H         43.74428       59.49544       61.57250
H         45.20158       60.98985       60.33011
H         43.64421       61.74553       60.80050
H         44.79369       63.30606       59.04888
H         44.15801       63.06633       57.42185
N         41.33946       58.61601       59.61909
C         39.88303       58.54280       59.52872
C         39.26191       59.36095       58.40611
O         38.04946       59.28073       58.25886
H         41.87228       57.82305       59.24789
H         39.42500       58.80431       60.50888
H         39.60707       57.48699       59.32199
N         39.99561       60.15291       57.57257
C         39.42508       60.91816       56.46111
C         40.13852       60.60634       55.15009
O         41.09415       59.84244       55.13592
C         39.51943       62.44040       56.75967
C         38.65116       62.85288       57.95432
O         40.85583       62.84794       56.92890
H         41.00466       60.23226       57.73505
H         38.35043       60.66717       56.31695
H         39.10820       63.01471       55.90465
H         41.15204       62.56503       57.83228
H         38.98240       62.34824       58.88484
H         38.71377       63.95274       58.09650
H         37.58987       62.58736       57.75658
N         39.74811       61.23566       54.00735
C         40.45438       61.15617       52.73770
C         41.19577       62.46142       52.58066
O         40.59008       63.52343       52.65181
C         39.46235       60.89671       51.57151
C         38.82837       59.49216       51.72205
C         40.16435       61.02799       50.19840
C         37.58832       59.30371       50.84923
H         38.95752       61.89637       54.05308
H         41.20522       60.33721       52.74188
H         38.66577       61.67096       51.63316
H         38.49529       59.33463       52.76938
H         39.58496       58.71145       51.48439
H         40.58539       62.04622       50.06414
H         40.99296       60.29283       50.10573
H         39.45673       60.87459       49.36046
H         37.18346       58.28142       51.00179
H         36.81045       60.03735       51.15207
H         37.80901       59.43026       49.77167
N         42.53306       62.43816       52.35755
C         43.36268       63.62270       52.25174
C         43.56089       63.97722       50.78756
O         43.14308       63.21792       49.92371
C         44.66409       63.34175       53.03926
C         44.35956       63.27489       54.52045
O         44.27521       62.12752       55.24652
O         44.10303       64.32377       55.08955
H         42.99095       61.52678       52.22123
H         42.83583       64.50311       52.68498
H         45.41710       64.14438       52.88240
H         45.11161       62.39038       52.67981
N         44.08114       65.18886       50.43339
C         44.14137       65.64245       49.04468
C         45.03434       64.75223       48.19882
O         44.57377       64.34567       47.14288
C         44.49289       67.14454       48.93986
C         44.49601       67.65637       47.50906
C         43.38339       67.47077       46.66185
C         45.61777       68.34323       47.01043
C         43.40443       67.94688       45.34718
C         45.62647       68.83174       45.69922
C         44.52324       68.62947       44.86713
H         44.37464       65.83633       51.18174
H         43.11063       65.56579       48.63421
H         45.46417       67.36162       49.42454
H         43.71589       67.70859       49.50012
H         42.49895       66.95227       47.00495
H         46.48281       68.51320       47.63858
H         42.55040       67.78888       44.70050
H         46.48952       69.36857       45.32736
H         44.53375       69.00385       43.85128
N         46.28526       64.35064       48.58254
C         47.06481       63.35882       47.85300
C         46.26665       62.09271       47.57187
O         46.27993       61.59795       46.45407
C         48.21262       63.02431       48.82424
C         48.40665       64.33408       49.54633
C         46.96512       64.76084       49.79492
H         47.45808       63.81524       46.91767
H         47.86857       62.30609       49.60421
H         49.11640       62.59595       48.34144
H         49.03641       64.28674       50.46040
H         48.86619       65.04830       48.82599
H         46.52096       64.21821       50.65724
H         46.95633       65.85268       49.96867
N         45.55938       61.51406       48.58239
C         44.87647       60.22569       48.48191
C         43.67850       60.24887       47.54385
O         43.20140       59.17932       47.19091
C         44.39412       59.77626       49.87644
C         45.55392       59.69367       50.88903
C         45.09640       59.41662       52.27945
O         46.00002       59.48256       53.27144
O         43.92335       59.19495       52.53524
H         45.55730       62.00970       49.48372
H         45.61517       59.48247       48.10795
H         43.89383       58.78428       49.81361
H         43.64816       60.51842       50.23496
H         46.08934       60.65646       50.96387
H         46.28761       58.92243       50.57677
N         43.10284       61.41778       47.14698
C         41.95159       61.49733       46.27248
H         41.11509       61.99003       46.81201
H         42.21239       62.10899       45.38350
H         41.61072       60.49985       45.92637
H         43.46964       62.30418       47.50098
Ca        44.22871       59.82805       55.29833
O         41.79463       57.24499       53.32533
H         41.39125       58.05618       52.93519
H         41.37497       56.49588       52.83434
O         41.55724       57.57171       56.77678
H         41.25706       57.36905       55.85835
H         41.41271       56.72544       57.26890

Ca 1.0



