%chk=holoCaM.loop1.water2.frame471.chk
%nprocshared=20
%mem=10GB
%nosave
#b3lyp/svp scf=(tight,noincore,xqc) Test 
#IOP(5/87=12) Density=Current Pop=(MK,readradii) iop(6/33=2) iop(6/42=6)

holoCaM.loop1.water2.frame471 

   0  1 
C         13.89744       71.57545       45.58078
C         12.67483       72.43188       45.46572
O         11.58103       71.88510       45.43850
H         14.82193       72.18906       45.60382
H         13.84094       70.97855       46.51492
H         13.94656       70.88915       44.70951
N         12.78232       73.78888       45.38379
C         11.63026       74.66782       45.26210
C         11.67043       75.38512       43.93155
O         12.72974       75.83374       43.51481
C         11.55735       75.63051       46.44597
C         10.23871       76.33947       46.41787
O         10.18694       77.55695       46.43945
O          9.10196       75.61523       46.34170
H         13.71970       74.22026       45.40162
H         10.69852       74.06134       45.29723
H         12.41198       76.34361       46.45297
H         11.58668       75.03707       47.38527
N         10.53432       75.47030       43.18654
C         10.50759       75.85421       41.78688
C          9.78368       77.16944       41.53382
O          9.85544       77.63829       40.40610
C          9.83405       74.70640       40.98913
C         10.36606       73.29781       41.34186
C         11.84889       73.10115       41.01208
C         12.33082       71.72478       41.49199
N         13.74155       71.52340       41.16694
H          9.65778       75.15265       43.60337
H         11.54888       75.99716       41.42735
H          9.91784       74.89235       39.89722
H          8.75146       74.69650       41.25170
H          9.76942       72.54025       40.78848
H         10.20270       73.10518       42.42546
H         12.46068       73.87135       41.52395
H         11.99197       73.19777       39.91447
H         11.72465       70.92168       41.01758
H         12.19876       71.65506       42.59530
H         14.32435       72.27051       41.61022
H         14.04823       70.59371       41.53403
H         13.87325       71.54020       40.12963
N          9.07011       77.82504       42.50110
C          8.44106       79.12774       42.27571
C          8.91198       80.18693       43.27703
O          8.36360       81.28046       43.26145
C          6.90474       79.00507       42.14343
C          6.15175       78.52661       43.34558
O          6.78174       78.23412       44.49360
O          4.93853       78.40993       43.27806
H          8.95584       77.39210       43.42849
H          8.73768       79.52968       41.28231
H          6.68945       78.30748       41.30340
H          6.49376       79.99977       41.86070
N         10.01118       79.99426       44.07108
C         10.63597       81.08363       44.81477
C          9.89935       81.56206       46.05202
O         10.22850       82.64190       46.52132
H         10.52457       79.10224       44.02622
H         10.77244       81.93843       44.11666
H         11.65501       80.78052       45.13953
N          8.97882       80.79199       46.69613
C          8.29037       81.21000       47.92849
C          8.78751       80.45289       49.16965
O          8.28386       80.71658       50.25190
C          6.74944       81.11071       47.74088
C          6.26215       79.71299       47.47460
O          5.09216       79.49252       47.20839
O          7.15570       78.71967       47.48159
H          8.80159       79.85545       46.31201
H          8.50866       82.27867       48.14089
H          6.47259       81.74512       46.87136
H          6.22992       81.50498       48.63995
N          9.81166       79.55207       49.10303
C         10.39648       78.88739       50.26093
C          9.44332       77.94884       50.96226
O          9.31583       78.04059       52.17378
H         10.25601       79.35725       48.19752
H         10.79885       79.64300       50.97114
H         11.25363       78.27164       49.90953
N          8.81491       76.96659       50.26154
C          7.95197       75.91616       50.82886
C          7.67941       74.82403       49.78577
O          8.05575       74.97798       48.63622
C          6.58041       76.44559       51.36576
C          6.60211       77.21972       52.69112
O          5.90740       77.18377       50.37959
H          9.03673       76.94513       49.25449
H          8.50951       75.40682       51.64667
H          5.95947       75.55685       51.60707
H          6.39624       78.04108       50.26572
H          5.55782       77.39215       53.02897
H          7.12225       76.62565       53.47373
H          7.05820       78.22024       52.59502
N          7.08926       73.64665       50.12752
C          6.87853       72.55153       49.18005
C          5.41760       72.11211       49.17661
O          4.83050       71.90947       50.23117
C          7.90314       71.40802       49.46405
C          9.31934       71.92157       49.05123
C          7.55261       70.12228       48.69249
C         10.45949       70.91759       49.20808
H          6.84465       73.48281       51.11765
H          7.09883       72.87362       48.13853
H          7.88083       71.15069       50.54550
H          9.57721       72.81414       49.65857
H          9.30517       72.22962       47.97998
H          6.55060       69.75215       48.98762
H          7.57593       70.29823       47.60299
H          8.25782       69.30347       48.93634
H         10.32012       70.04284       48.54019
H         11.41178       71.40487       48.90530
H         10.54168       70.58424       50.26175
N          4.80880       71.86225       47.98014
C          3.44829       71.37237       47.78962
C          3.51068       69.91800       47.34752
O          4.59440       69.36634       47.30738
C          2.73202       72.22854       46.70688
C          2.66081       73.71344       47.10153
O          3.34626       72.03926       45.44734
H          5.37482       71.94594       47.12868
H          2.87206       71.41966       48.73965
H          1.68042       71.88873       46.60687
H          3.82860       72.86004       45.17095
H          2.12306       73.83246       48.06472
H          3.68151       74.13527       47.19916
H          2.11855       74.28495       46.31776
N          2.39693       69.21983       47.00405
C          2.44836       67.83767       46.52153
C          3.23446       67.71557       45.21339
O          4.12626       66.88059       45.15757
C          1.03041       67.23974       46.38181
C          0.37760       67.08582       47.76750
O          0.24016       68.04485       45.54527
H          1.48264       69.68852       47.08620
H          2.96958       67.20448       47.27701
H          1.12743       66.22124       45.93948
H         -0.63181       67.58246       45.43917
H          1.00487       66.43052       48.41139
H          0.25768       68.06616       48.27295
H         -0.62033       66.61036       47.67147
N          2.98550       68.51879       44.13477
C          3.72957       68.41895       42.87059
C          5.22893       68.51590       43.08771
O          5.95372       67.62718       42.66170
C          3.32360       69.53624       41.87930
C          1.92755       69.33502       41.27885
C          1.62653       70.42946       40.23864
C          0.36746       70.14199       39.40401
N         -0.84744       70.07287       40.21461
H          2.26132       69.24660       44.22941
H          3.52687       67.43420       42.39319
H          4.03777       69.51288       41.02441
H          3.40721       70.53450       42.36513
H          1.15673       69.34069       42.07725
H          1.91703       68.34661       40.77010
H          2.47207       70.48608       39.51760
H          1.54064       71.41655       40.74418
H          0.50149       69.18517       38.85148
H          0.25570       70.95443       38.65155
H         -0.80111       69.26804       40.87887
H         -0.98291       70.96743       40.73818
H         -1.66472       69.92310       39.57964
N          5.75608       69.58023       43.74139
C          7.18682       69.77804       43.97249
C          7.77032       68.58159       44.71332
O          8.77772       68.04099       44.27906
C          7.39887       71.10113       44.74441
C          6.93576       72.31332       43.90522
C          6.95145       73.59816       44.67727
O          7.55329       74.56025       44.24586
O          6.22627       73.73447       45.79872
H          5.08706       70.26869       44.11563
H          7.72413       69.87419       43.00222
H          8.47205       71.23212       45.00754
H          6.80948       71.05074       45.67667
H          5.89178       72.18482       43.56404
H          7.57868       72.39945       43.00096
N          7.13450       68.06640       45.79580
C          7.58079       66.88537       46.49981
H          8.57397       67.06562       46.95822
H          6.85445       66.63378       47.30425
H          7.63372       66.02300       45.80118
H          6.26770       68.50438       46.09989
Ca         7.16069       76.64545       46.74017
O          4.32130       75.77949       44.82550
H          3.87711       76.65517       44.94876
H          3.72945       75.28534       44.20459
O          4.37560       76.61186       47.92421
H          3.41205       76.78614       48.06771
H          4.59916       75.89773       48.57260

Ca 1.0



