%chk=holoCaM-CaMKII.loop2.water1.frame449.chk
%nprocshared=20
%mem=10GB
%nosave
#b3lyp/svp scf=(tight,noincore,xqc) Test 
#IOP(5/87=12) Density=Current Pop=(MK,readradii) iop(6/33=2) iop(6/42=6)

holoCaM-CaMKII.loop2.water1.frame449 

   -2  1 
C         58.49554       47.12349       30.43111
C         59.29801       46.07111       29.72055
O         59.15683       45.92857       28.51512
H         57.41226       46.91050       30.32917
H         58.74823       47.16609       31.51263
H         58.72005       48.11642       29.98723
N         60.18735       45.30788       30.41118
C         61.07589       44.33578       29.78041
C         60.32039       43.19535       29.09761
O         59.15363       42.97810       29.39293
C         62.03881       43.79962       30.86649
C         63.03372       42.80654       30.37063
O         63.80953       43.10895       29.48004
O         63.07513       41.57582       30.91636
H         60.27428       45.47205       31.42712
H         61.66381       44.87477       29.00959
H         61.44528       43.32645       31.68010
H         62.60070       44.65518       31.30106
N         60.96792       42.39985       28.18967
C         60.38452       41.20978       27.57498
C         61.46768       40.39198       26.85890
O         61.30755       40.05162       25.69583
C         59.23448       41.59143       26.62400
H         61.94513       42.62607       27.96049
H         59.99455       40.55999       28.38763
H         59.61438       42.23616       25.80121
H         58.78128       40.67831       26.18228
H         58.43219       42.14127       27.15499
N         62.60965       40.05299       27.53378
C         63.71991       39.23649       27.00442
C         64.94309       39.15829       27.93640
O         65.75284       38.26363       27.73462
C         64.20258       39.67318       25.60322
C         64.43845       41.14494       25.51955
O         63.78965       41.80797       24.72515
O         65.32603       41.76485       26.31272
H         62.65175       40.38230       28.50302
H         63.33553       38.19830       26.90578
H         63.43952       39.40468       24.84515
H         65.12381       39.12100       25.31653
N         65.17263       40.04626       28.94548
C         66.29482       39.96238       29.86000
C         67.61591       40.23496       29.18754
O         68.50347       39.39748       29.25946
H         64.53652       40.82498       29.10174
H         66.28973       38.97442       30.36961
H         66.17473       40.74269       30.64511
N         67.83292       41.43538       28.57872
C         69.13393       41.86487       28.06997
C         69.65243       43.07429       28.86412
O         70.67729       43.62933       28.49290
C         69.07217       42.12803       26.54437
C         68.24106       43.30484       26.10921
N         68.17134       43.63766       24.80088
O         67.64018       43.97489       26.92824
H         67.05013       42.10589       28.53683
H         69.88542       41.05477       28.19417
H         68.69271       41.21411       26.03619
H         70.10725       42.31158       26.18355
H         68.67320       43.08974       24.08752
H         67.62162       44.45536       24.50300
N         69.02542       43.49583       30.00760
C         69.49159       44.58080       30.86027
C         69.22421       45.98605       30.34401
O         69.56289       46.91901       31.05569
H         68.22514       42.96116       30.36804
H         70.57308       44.44221       31.07738
H         68.94744       44.51121       31.82714
N         68.63739       46.22837       29.13752
C         68.40612       47.56842       28.59537
C         66.94972       47.76151       28.16484
O         66.15570       46.84012       28.26640
C         69.37386       47.78450       27.39979
C         70.82788       47.78902       27.88412
O         69.22902       46.77470       26.43180
H         68.39464       45.43534       28.54419
H         68.62061       48.34972       29.35639
H         69.20390       48.77757       26.92974
H         68.30421       46.82912       26.07803
H         71.10256       46.81061       28.33218
H         71.51192       47.98663       27.03275
H         70.97624       48.58569       28.64510
N         66.55414       48.95474       27.62361
C         65.22476       49.20752       27.07188
C         65.37024       49.29955       25.56208
O         66.19191       50.05885       25.06997
C         64.57513       50.48644       27.68606
C         64.36904       50.28830       29.21147
C         63.22733       50.79566       26.99520
C         63.71396       51.47941       29.91864
H         67.24878       49.70961       27.53266
H         64.53886       48.36331       27.29580
H         65.24923       51.35419       27.51293
H         65.35762       50.11467       29.68673
H         63.73488       49.39173       29.39185
H         63.35887       50.93427       25.90407
H         62.50079       49.97825       27.17480
H         62.79088       51.74595       27.36106
H         63.65160       51.27278       31.00757
H         64.30815       52.40303       29.75995
H         62.67502       51.64094       29.56326
N         64.56902       48.53583       24.77059
C         64.65441       48.47485       23.31539
C         63.61614       49.39804       22.72296
O         62.92562       50.05852       23.47727
C         64.34403       47.03667       22.85047
C         65.13306       45.98218       23.56016
O         65.04393       45.90091       24.90062
O         65.73974       45.13170       22.92989
H         63.82278       47.99070       25.22254
H         65.66627       48.77953       22.96962
H         64.47841       46.93902       21.75171
H         63.27919       46.81806       23.08984
N         63.43974       49.50894       21.37699
C         62.39301       50.35562       20.81973
C         61.00287       49.78906       21.15230
O         60.21679       50.54538       21.70773
C         62.65674       50.65098       19.32402
C         61.82069       51.78808       18.77430
C         61.87596       53.06927       19.36225
C         61.01466       51.59702       17.63944
C         61.13399       54.12700       18.83198
C         60.28074       52.66322       17.10647
C         60.33891       53.92555       17.70325
H         64.07255       49.00076       20.74163
H         62.49369       51.34425       21.31508
H         62.55103       49.74643       18.70158
H         63.71481       50.97995       19.22973
H         62.49732       53.26259       20.22650
H         60.96487       50.62922       17.15726
H         61.18361       55.10577       19.29268
H         59.67073       52.51311       16.22566
H         59.77325       54.74990       17.28853
N         60.62634       48.47788       20.93441
C         59.33270       47.90543       21.33089
C         58.96565       47.99709       22.81083
O         57.86256       47.60136       23.16004
C         59.48056       46.41126       21.01146
C         60.41178       46.42808       19.83178
C         61.43245       47.48004       20.25704
H         58.55346       48.40092       20.71038
H         60.04910       45.91268       21.83437
H         58.52233       45.86622       20.87339
H         60.84984       45.44335       19.56257
H         59.83486       46.81918       18.96320
H         62.17279       47.07257       20.97322
H         61.92659       47.83470       19.33907
N         59.84221       48.46956       23.73571
C         59.57486       48.55441       25.16391
C         59.37425       50.01217       25.54468
O         58.42717       50.30526       26.26047
C         60.73416       47.90173       25.94348
C         60.89489       46.41115       25.58601
C         62.02436       45.74249       26.31998
O         62.25237       44.56173       26.11469
O         62.78959       46.41953       27.19827
H         60.77158       48.76997       23.42897
H         58.64388       48.01036       25.44108
H         60.54145       47.99446       27.03539
H         61.67282       48.43657       25.70307
H         61.09315       46.30778       24.49787
H         59.95410       45.87202       25.82893
N         60.17026       50.99053       25.02719
C         59.97836       52.40563       25.25509
H         59.14810       52.61269       25.95958
H         60.91549       52.84225       25.65715
H         59.74797       52.89698       24.28429
H         60.92616       50.74096       24.38891
Ca        65.16168       43.95243       25.94559
O         66.09169       44.61522       29.95195
H         66.06001       43.74600       30.42297
H         65.33572       45.13074       30.32972

Ca 1.0



