%chk=holoCaM-CaMKII.loop2.water2.frame403.chk
%nprocshared=20
%mem=10GB
%nosave
#b3lyp/svp scf=(tight,noincore,xqc) Test 
#IOP(5/87=12) Density=Current Pop=(MK,readradii) iop(6/33=2) iop(6/42=6)

holoCaM-CaMKII.loop2.water2.frame403 

   -2  1 
C         59.83043       60.08561       55.40386
C         60.03944       58.91547       54.48924
O         59.40215       57.88787       54.66724
H         59.05741       59.86051       56.16865
H         60.78394       60.33921       55.91087
H         59.49275       60.96193       54.80879
N         60.90400       59.02653       53.44631
C         61.07827       57.98407       52.44537
C         62.04998       56.92156       52.94630
O         63.14304       57.26754       53.37241
C         61.57745       58.62087       51.13342
C         61.45080       57.71253       49.94164
O         60.86286       56.50587       50.04401
O         61.82015       58.10658       48.84854
H         61.37568       59.93419       53.30589
H         60.07702       57.55557       52.21083
H         62.62814       58.96057       51.25508
H         60.94565       59.50693       50.90334
N         61.72252       55.60231       52.88653
C         62.56734       54.51261       53.36646
C         63.05763       53.62301       52.22771
O         63.61985       52.57467       52.51533
C         61.75509       53.68261       54.37111
H         60.82436       55.35157       52.46065
H         63.46608       54.89485       53.89772
H         61.41684       54.32376       55.21215
H         60.86404       53.23454       53.88154
H         62.37347       52.86033       54.79188
N         62.93317       53.98627       50.91581
C         63.35130       53.12951       49.81027
C         63.45905       53.90374       48.49328
O         64.54481       53.89252       47.92798
C         62.47948       51.84794       49.73048
C         60.99001       52.05967       49.83690
O         60.37338       52.66705       48.98334
O         60.31804       51.53456       50.87970
H         62.55619       54.91267       50.69042
H         64.39158       52.77848       50.00509
H         62.75729       51.20226       50.58981
H         62.72888       51.27644       48.81032
N         62.42804       54.61863       47.95339
C         62.55608       55.37649       46.70904
C         61.56786       54.96176       45.63456
O         61.61956       55.53940       44.55766
H         61.53352       54.67039       48.45430
H         63.57506       55.27797       46.27814
H         62.39423       56.45129       46.92968
N         60.64273       53.97999       45.83612
C         59.68361       53.53444       44.82467
C         58.63388       54.58465       44.41583
O         57.79793       54.25787       43.58452
C         59.01142       52.21554       45.28382
C         58.15966       52.29937       46.52580
N         57.54441       51.18443       46.98058
O         58.01959       53.35450       47.12395
H         60.65306       53.47997       46.73023
H         60.25669       53.26484       43.90994
H         59.81160       51.46584       45.47343
H         58.37763       51.82797       44.45805
H         57.66015       50.28418       46.49357
H         56.94670       51.21509       47.81528
N         58.63285       55.86459       44.89598
C         57.72226       56.90072       44.42233
C         56.33029       56.86180       45.02822
O         55.53959       57.72841       44.68321
H         59.36759       56.16679       45.54149
H         57.67611       56.87667       43.31130
H         58.14557       57.88818       44.70795
N         55.96017       55.92986       45.95055
C         54.65199       55.89898       46.61103
C         54.84149       56.00480       48.12203
O         55.97283       56.17608       48.55146
C         53.90074       54.60458       46.21323
C         53.65174       54.53666       44.69680
O         54.57177       53.45594       46.67257
H         56.63819       55.20693       46.21923
H         54.01962       56.75740       46.29302
H         52.89621       54.61460       46.68503
H         55.34636       53.28918       46.07602
H         53.07768       55.42780       44.36275
H         54.60971       54.50293       44.13522
H         53.06553       53.62696       44.45048
N         53.79452       55.89372       48.99766
C         53.97941       55.93039       50.44927
C         53.65899       54.55202       51.01093
O         52.51275       54.12930       50.93410
C         53.08271       57.01671       51.12315
C         53.22454       58.39790       50.43602
C         53.42094       57.11304       52.62702
C         52.24831       59.44454       50.98858
H         52.84342       55.73471       48.63380
H         55.03806       56.17326       50.68711
H         52.02041       56.70371       51.01036
H         52.98551       58.28778       49.35677
H         54.26634       58.77378       50.52622
H         52.74413       57.80762       53.16104
H         53.30145       56.13209       53.12072
H         54.46985       57.45386       52.76775
H         52.46162       59.68847       52.04846
H         52.33991       60.38517       50.40712
H         51.20191       59.07894       50.90220
N         54.63452       53.78499       51.57810
C         54.37302       52.48238       52.18062
C         53.68496       52.65968       53.53049
O         53.50472       53.78513       53.96967
C         55.68262       51.67704       52.35437
C         56.25554       51.16297       51.05292
O         56.80508       51.95034       50.10512
O         56.24635       49.95848       50.85206
H         55.59370       54.14525       51.59875
H         53.70358       51.89123       51.51572
H         55.43751       50.76773       52.93975
H         56.44215       52.24580       52.92970
N         53.25187       51.57982       54.24467
C         52.56852       51.71637       55.52480
C         53.45957       52.33078       56.60700
O         53.01844       53.30700       57.19791
C         51.99996       50.37214       56.03191
C         51.05986       50.61654       57.19315
C         49.81635       51.23451       56.96338
C         51.41259       50.25588       58.50470
C         48.94223       51.48518       58.02348
C         50.53812       50.52070       59.56601
C         49.30403       51.13239       59.32496
H         53.36837       50.63667       53.84443
H         51.69025       52.37871       55.35002
H         52.82640       49.69926       56.32486
H         51.42851       49.85237       55.23295
H         49.52137       51.51680       55.96013
H         52.36844       49.79038       58.70895
H         47.98582       51.95633       57.83485
H         50.81723       50.25533       60.57732
H         48.62785       51.33487       60.14571
N         54.69662       51.83783       56.96266
C         55.47354       52.37742       58.07260
C         55.98212       53.78032       57.80252
O         56.47767       54.40963       58.72713
C         56.61952       51.37109       58.23660
C         56.84306       50.92566       56.80693
C         55.40842       50.75387       56.31150
H         54.86282       52.39724       59.00212
H         57.51655       51.74724       58.77438
H         56.23243       50.48048       58.78199
H         57.30912       51.77754       56.25860
H         57.48585       50.03033       56.66995
H         55.43007       50.83495       55.21151
H         54.98759       49.78213       56.63881
N         55.91552       54.32931       56.56082
C         56.33001       55.69041       56.27283
C         55.22816       56.62548       56.71811
O         55.47555       57.51148       57.52358
C         56.61480       55.84865       54.76864
C         57.72884       54.88041       54.32044
C         58.02212       54.96933       52.85709
O         58.84851       54.06582       52.29965
O         57.49929       55.82232       52.15881
H         55.56601       53.75891       55.77879
H         57.28548       55.92293       56.79735
H         56.92297       56.89650       54.56242
H         55.69575       55.63110       54.18226
H         57.41208       53.83701       54.51803
H         58.66661       55.06940       54.88676
N         53.96212       56.45295       56.24484
C         52.85187       57.28366       56.64838
H         51.92214       56.93090       56.15086
H         52.70916       57.21775       57.74766
H         53.03784       58.33630       56.35167
H         53.76987       55.68684       55.58570
Ca        57.32325       54.13240       49.88650
O         58.72031       56.79583       47.93082
H         59.61396       57.11541       47.65246
H         58.09620       57.47208       47.56590
O         57.37355       58.15129       50.36040
H         57.51365       59.00173       50.84612
H         58.24345       57.68373       50.42733

Ca 1.0



