%chk=holoCaM.loop2.water2.frame111.chk
%nprocshared=20
%mem=10GB
%nosave
#b3lyp/svp scf=(tight,noincore,xqc) Test 
#IOP(5/87=12) Density=Current Pop=(MK,readradii) iop(6/33=2) iop(6/42=6)

holoCaM.loop2.water2.frame111 

   -2  1 
C         -4.22236       15.16311       93.82953
C         -3.43343       15.91152       92.78993
O         -2.28918       15.57637       92.53315
H         -5.13236       14.73343       93.35219
H         -3.63477       14.32701       94.26250
H         -4.54183       15.85111       94.63880
N         -4.03636       16.91273       92.10235
C         -3.46989       17.56344       90.92426
C         -2.42614       18.63698       91.23874
O         -2.64011       19.44134       92.13428
C         -4.63667       18.16941       90.13136
C         -4.18588       18.76566       88.84763
O         -4.43532       20.06199       88.58733
O         -3.59301       18.07665       88.03670
H         -5.02184       17.10829       92.34318
H         -3.02659       16.78460       90.26190
H         -5.15719       18.94014       90.73773
H         -5.35767       17.35752       89.88872
N         -1.30597       18.74681       90.45717
C         -0.26636       19.76637       90.61365
C          0.00120       20.56345       89.32199
O          0.95653       21.32810       89.31679
C          1.03501       19.07298       91.04123
H         -1.18181       18.06303       89.69989
H         -0.52823       20.47896       91.42539
H          0.86614       18.47041       91.95833
H          1.42092       18.41595       90.24081
H          1.82490       19.82275       91.26021
N         -0.77314       20.44829       88.19484
C         -0.41124       21.10183       86.91860
C         -1.51174       21.19109       85.84772
O         -1.27948       21.87226       84.85725
C          0.80947       20.36012       86.31525
C          0.52013       18.89108       86.06763
O         -0.74857       18.42558       86.07483
O          1.44426       18.11220       85.90014
H         -1.60677       19.86748       88.26811
H         -0.15544       22.16168       87.14395
H          1.63601       20.41964       87.05255
H          1.17543       20.83726       85.37982
N         -2.70800       20.55132       85.94402
C         -3.76163       20.63439       84.95484
C         -3.35037       20.03903       83.63322
O         -3.44376       20.71953       82.62235
H         -2.91196       19.96227       86.74183
H         -4.09066       21.68961       84.84193
H         -4.63461       20.04630       85.31873
N         -2.94002       18.74083       83.56818
C         -2.68593       18.03281       82.31767
C         -3.69860       16.90101       82.11880
O         -3.54563       16.12585       81.18462
C         -1.22229       17.53817       82.23545
C         -0.79982       16.46330       83.20581
N          0.41829       15.89299       83.06638
O         -1.54316       16.08398       84.09530
H         -2.86482       18.20967       84.44703
H         -2.80865       18.71869       81.45128
H         -0.53244       18.40364       82.34289
H         -1.07947       17.12079       81.21508
H          1.05702       16.19099       82.31494
H          0.71567       15.13167       83.68879
N         -4.80034       16.78847       82.92082
C         -5.84038       15.78811       82.75580
C         -5.47481       14.38734       83.21156
O         -6.35476       13.54280       83.15421
H         -4.97953       17.50458       83.63602
H         -6.18923       15.77977       81.70016
H         -6.70399       16.09006       83.38836
N         -4.23292       14.05018       83.67414
C         -3.89732       12.69860       84.13269
C         -3.28668       12.71955       85.53080
O         -2.99053       13.78557       86.04584
C         -2.92767       12.02291       83.12859
C         -3.54185       11.90814       81.72423
O         -1.68746       12.68726       83.08053
H         -3.49332       14.75674       83.67817
H         -4.81587       12.07688       84.18802
H         -2.73324       10.98341       83.46859
H         -1.81531       13.54981       82.60725
H         -3.74556       12.91230       81.29482
H         -2.84227       11.37348       81.04807
H         -4.49549       11.33997       81.76841
N         -3.02470       11.54137       86.17728
C         -2.30927       11.46027       87.44822
C         -0.85221       11.18275       87.13755
O         -0.53479       10.12781       86.60672
C         -2.91929       10.35271       88.37240
C         -4.32815       10.77213       88.85965
C         -1.99656       10.04145       89.57451
C         -5.07087        9.66558       89.61851
H         -3.24708       10.65904       85.69530
H         -2.36068       12.43236       87.98700
H         -3.00314        9.41644       87.77577
H         -4.95471       11.04187       87.98379
H         -4.24257       11.66734       89.51498
H         -2.39479        9.21716       90.19679
H         -1.01146        9.67467       89.22557
H         -1.84512       10.94068       90.20675
H         -5.19890        8.77489       88.96738
H         -4.54451        9.36606       90.54675
H         -6.07472       10.03268       89.91765
N          0.09316       12.11541       87.44732
C          1.52039       11.90010       87.25464
C          2.05693       10.98425       88.34309
O          1.32585       10.64650       89.26611
C          2.28765       13.24126       87.29220
C          1.86546       14.17120       86.18840
O          0.60000       14.62316       86.12308
O          2.67750       14.53728       85.35361
H         -0.21759       13.01098       87.83825
H          1.68592       11.44130       86.25392
H          3.37376       13.04431       87.17177
H          2.13143       13.74577       88.26964
N          3.34015       10.53321       88.29765
C          3.89960        9.65202       89.31342
C          3.96641       10.32215       90.68562
O          3.47666        9.70705       91.61697
C          5.25149        9.06208       88.86799
C          5.82910        8.14167       89.91953
C          5.10639        7.02392       90.38108
C          7.09909        8.40422       90.45882
C          5.64303        6.19605       91.37011
C          7.63522        7.56750       91.44117
C          6.90691        6.46655       91.89887
H          3.92550       10.79494       87.48861
H          3.21955        8.77516       89.40101
H          5.97256        9.86246       88.62517
H          5.08991        8.48327       87.93287
H          4.12508        6.79349       89.98733
H          7.67472        9.25660       90.12001
H          5.07733        5.34497       91.72704
H          8.61512        7.77545       91.84960
H          7.32168        5.82303       92.66322
N          4.52734       11.55310       90.92176
C          4.46599       12.22360       92.21942
C          3.04511       12.30663       92.75624
O          2.81467       12.03182       93.92611
C          4.96702       13.64746       91.91292
C          5.93854       13.40317       90.78737
C          5.17300       12.39491       89.93660
H          5.15077       11.71324       92.93251
H          4.15035       14.26391       91.47108
H          5.37060       14.19411       92.79249
H          6.27250       14.31126       90.24129
H          6.83047       12.89434       91.21979
H          4.39184       12.88569       89.31921
H          5.90938       11.87530       89.30166
N          2.04399       12.69920       91.92033
C          0.65794       12.93943       92.32048
C         -0.05466       11.68555       92.80474
O         -1.11402       11.81364       93.40254
C         -0.11386       13.56530       91.13239
C          0.52062       14.91718       90.75146
C          0.00923       15.54106       89.49567
O         -1.02566       15.06427       88.78502
O          0.58594       16.52838       89.07706
H          2.30840       12.86725       90.93893
H          0.67027       13.66700       93.16375
H         -1.18439       13.70924       91.38014
H         -0.05857       12.86326       90.27286
H          1.60426       14.80060       90.57291
H          0.40188       15.63735       91.58989
N          0.44888       10.44327       92.57937
C         -0.17853        9.24041       93.07609
H         -1.21385        9.15726       92.68632
H          0.40225        8.35221       92.74489
H         -0.19182        9.25690       94.18655
H          1.29850       10.33751       92.02403
Ca        -1.38606       16.53035       87.11591
O         -4.75870       16.40596       85.99383
H         -4.44200       17.33388       85.86890
H         -5.74160       16.49537       86.05981
O         -4.00009       14.87784       88.38787
H         -3.72628       14.43883       89.23116
H         -4.96741       15.05504       88.49631

Ca 1.0



