%chk=holoCaM.loop4.water3.frame237.chk
%nprocshared=20
%mem=10GB
%nosave
#b3lyp/svp scf=(tight,noincore,xqc) Test 
#IOP(5/87=12) Density=Current Pop=(MK,readradii) iop(6/33=2) iop(6/42=6)

holoCaM.loop4.water3.frame237 

   -3  1 
C         51.00064       67.33978       49.65192
C         49.92482       67.66772       50.64185
O         49.12485       68.55113       50.36709
H         51.99857       67.49910       50.10849
H         50.89956       66.28075       49.33546
H         50.91149       67.98622       48.75106
N         49.84604       66.99636       51.82932
C         48.79061       67.25684       52.80446
C         49.04666       66.50555       54.11453
O         49.27143       65.30367       54.08499
C         47.40993       66.85191       52.23759
C         46.27152       67.39531       53.05730
O         45.12392       67.10322       52.76526
O         46.49634       68.26497       54.05987
H         50.57080       66.29322       52.04105
H         48.78664       68.34874       52.99786
H         47.35208       65.74415       52.17802
H         47.25717       67.25453       51.21694
N         48.98655       67.16771       55.30571
C         49.25587       66.58533       56.61574
C         47.99444       66.55903       57.48660
O         47.77369       65.55918       58.15491
C         50.43991       67.35384       57.30377
C         50.97095       66.55881       58.52605
C         50.08007       68.80392       57.70190
C         52.22829       67.16478       59.16080
H         48.73204       68.15248       55.28205
H         49.59985       65.53461       56.48658
H         51.26851       67.39796       56.56131
H         51.24303       65.53590       58.18569
H         50.18379       66.46902       59.30490
H         49.31190       68.81702       58.50182
H         50.96885       69.35106       58.07350
H         49.70979       69.38629       56.84168
H         53.03500       67.26785       58.40393
H         52.02005       68.15492       59.61430
H         52.58973       66.50041       59.97359
N         47.14618       67.63177       57.55327
C         46.03779       67.74909       58.50846
C         44.64029       67.82001       57.87929
O         43.68014       67.89803       58.63401
C         46.29591       68.96504       59.43451
C         46.38666       70.30695       58.74876
O         46.27471       70.41280       57.54059
O         46.61233       71.41104       59.48460
H         47.33381       68.42791       56.93488
H         46.01432       66.85323       59.16592
H         47.25463       68.79912       59.97018
H         45.48830       69.02070       60.19514
N         44.42694       67.74051       56.53582
C         43.09671       67.66933       55.93469
C         42.23599       68.92278       56.03471
O         41.10452       68.86052       55.57439
H         45.23242       67.62323       55.91636
H         42.54861       66.81998       56.39813
H         43.20588       67.44197       54.85220
N         42.67331       70.08743       56.59414
C         41.83683       71.28783       56.70003
C         41.35950       71.78162       55.32849
O         40.16289       71.96748       55.15687
C         42.55153       72.41200       57.49577
C         43.73991       72.98498       56.77891
O         44.77746       72.19627       56.44305
O         43.73205       74.15526       56.43325
H         43.62532       70.11726       56.97744
H         40.93987       71.02855       57.30801
H         42.86628       72.02462       58.48822
H         41.81400       73.22793       57.66960
N         42.23604       71.95545       54.29555
C         41.84916       72.35122       52.94558
C         42.71733       73.44698       52.33272
O         42.53238       73.70757       51.15259
H         43.21344       71.69138       54.44807
H         40.77938       72.64638       52.88927
H         41.97902       71.45792       52.29921
N         43.68867       74.11036       53.03120
C         44.59860       75.09424       52.43538
C         46.08585       74.64820       52.57301
O         46.23125       73.27003       52.37318
C         44.41876       76.44726       53.15321
C         43.00564       77.01717       52.98491
C         42.87274       78.33663       53.70102
N         42.99776       78.41073       55.04746
O         42.64339       79.35025       53.05852
H         43.78826       73.92276       54.03066
H         44.38215       75.21092       51.35083
H         45.13040       77.19632       52.75042
H         44.64662       76.30592       54.23349
H         42.24493       76.31478       53.38707
H         42.81392       77.16156       51.89880
H         43.17776       77.56644       55.61005
H         42.90565       79.31580       55.53215
N         46.94627       75.36512       51.60945
C         48.36594       74.95654       51.64959
C         49.19818       75.90423       52.51324
O         49.45650       77.03247       52.11889
C         48.90811       74.84447       50.19661
C         50.39493       74.46547       50.15635
C         48.11254       73.79173       49.40336
H         46.84610       76.40381       51.64234
H         48.46014       73.93540       52.08254
H         48.79083       75.82861       49.69165
H         50.56374       73.48703       50.65243
H         50.74667       74.39620       49.10489
H         51.00799       75.24208       50.65313
H         47.03425       74.05109       49.36481
H         48.48486       73.73387       48.35812
H         48.21955       72.78786       49.87000
N         49.66020       75.46866       53.71664
C         50.58298       76.19104       54.59112
C         51.97305       76.23931       53.95640
O         52.16904       75.65055       52.90573
C         50.62109       75.44053       55.95502
C         51.48771       76.04676       57.02828
N         51.26607       77.30278       57.47828
O         52.39568       75.38568       57.50956
H         49.31929       74.55843       54.02794
H         50.19419       77.21926       54.75476
H         50.95946       74.39484       55.77643
H         49.58662       75.40129       56.35745
H         50.50359       77.87596       57.09092
H         51.86695       77.70471       58.21334
N         52.99695       76.91880       54.54286
C         54.36167       76.92328       54.02384
C         54.96666       75.52208       54.06309
O         55.48367       75.06928       53.05157
C         55.23958       77.87773       54.86088
C         56.62840       78.00251       54.28110
C         56.81956       78.58254       53.01474
C         57.74245       77.53957       54.99776
C         58.10352       78.69305       52.47471
C         59.02569       77.64500       54.45359
C         59.21020       78.22390       53.18931
O         60.44192       78.33363       52.65259
H         52.80179       77.46654       55.39105
H         54.34479       77.30405       52.97827
H         55.28082       77.50178       55.90732
H         54.78314       78.89101       54.88906
H         55.97562       78.95294       52.44624
H         57.61658       77.08897       55.97246
H         58.23731       79.14397       51.49936
H         59.87450       77.27668       55.01541
H         61.23319       78.01962       53.11286
N         54.93082       74.78456       55.21496
C         55.53156       73.45298       55.37253
C         54.94036       72.38662       54.44584
O         55.43442       71.26671       54.46656
C         55.37001       72.94831       56.83215
C         56.01648       73.83993       57.90722
C         57.50309       73.95396       57.73031
O         58.02128       75.04809       57.57979
O         58.27438       72.85030       57.75558
H         54.46613       75.21187       56.02581
H         56.61591       73.53532       55.13998
H         55.82109       71.93489       56.92455
H         54.28483       72.85408       57.05965
H         55.82047       73.38587       58.90226
H         55.55502       74.84901       57.90984
N         53.90797       72.65049       53.60131
C         53.32181       71.68717       52.68329
C         53.71895       72.06542       51.26975
O         54.30371       71.24027       50.58146
C         51.79440       71.68934       52.87744
C         51.40497       71.10626       54.24437
C         49.94258       71.29927       54.49953
O         49.10738       70.25985       54.54045
O         49.49714       72.41083       54.68777
H         53.50015       73.58946       53.58286
H         53.70195       70.65539       52.86290
H         51.30289       71.07685       52.08901
H         51.42355       72.73435       52.78698
H         51.96043       71.59482       55.07433
H         51.65540       70.02255       54.24561
N         53.47977       73.31150       50.78054
C         53.90600       73.72206       49.46181
H         55.00949       73.62362       49.37457
H         53.41123       73.09766       48.68952
H         53.63464       74.78635       49.29354
H         53.00597       74.00407       51.36865
Ca        45.58409       72.38992       54.35540
O         44.52299       70.09429       52.76147
H         43.99029       69.60828       53.43994
H         43.95244       70.10467       51.95358
O         47.32862       70.56149       51.95916
H         46.92392       70.73094       51.07161
H         48.28929       70.76680       51.83882
O         47.51631       73.62744       56.53521
H         48.00001       73.64912       57.39870
H         46.70070       74.16545       56.69314

Ca 1.0



