%chk=holoCaM-CaMKII.loop4.water2.frame229.chk
%nprocshared=20
%mem=10GB
%nosave
#b3lyp/svp scf=(tight,noincore,xqc) Test 
#IOP(5/87=12) Density=Current Pop=(MK,readradii) iop(6/33=2) iop(6/42=6)

holoCaM-CaMKII.loop4.water2.frame229 

   -3  1 
C         65.05028       37.51830       27.18313
C         66.24314       37.57538       26.27954
O         66.78643       38.64868       26.06142
H         64.18209       37.11025       26.62586
H         65.27389       36.85363       28.04556
H         64.79758       38.52821       27.56825
N         66.73142       36.42670       25.74350
C         67.93412       36.38667       24.92594
C         67.73611       37.06233       23.57583
O         66.65221       36.96136       23.01848
C         68.40433       34.93542       24.77808
C         69.76785       34.90146       24.18838
O         70.70819       35.70860       24.70810
O         70.02908       34.15499       23.26594
H         66.26591       35.53897       25.99307
H         68.72823       36.92157       25.49478
H         67.68647       34.30673       24.20587
H         68.50191       34.50898       25.80115
N         68.75375       37.77482       22.99778
C         68.59984       38.56613       21.77638
C         69.43463       38.04258       20.59949
O         69.11269       38.43465       19.48592
C         68.93538       40.06031       22.10932
C         68.04023       40.63200       23.24469
C         68.91161       41.00020       20.88915
C         66.55343       40.75676       22.89514
H         69.66360       37.80573       23.47607
H         67.54817       38.49788       21.42685
H         69.98035       40.08192       22.49062
H         68.41105       41.64447       23.51729
H         68.13965       40.00011       24.15174
H         67.92203       40.99221       20.38928
H         69.15487       42.03760       21.20426
H         69.68770       40.71175       20.15193
H         66.00724       41.17768       23.76523
H         66.40210       41.44610       22.03927
H         66.10960       39.77010       22.65678
N         70.49302       37.18133       20.72531
C         71.25670       36.70328       19.55961
C         71.21034       35.18229       19.39114
O         71.84393       34.67185       18.47787
C         72.69471       37.26732       19.56420
C         73.60284       36.78103       20.65605
O         74.75751       37.17571       20.68518
O         73.18163       35.90194       21.58210
H         70.78444       36.87275       21.66370
H         70.81590       37.10652       18.62247
H         72.63510       38.37734       19.61623
H         73.17322       37.00538       18.59457
N         70.41463       34.40608       20.17619
C         70.20284       32.98048       19.97664
C         71.39334       32.09792       20.29228
O         71.72657       31.23859       19.48985
H         69.84015       34.85402       20.90174
H         69.82880       32.79086       18.94710
H         69.40054       32.66425       20.67909
N         72.01174       32.19664       21.49845
C         72.96470       31.22173       22.03640
C         72.43210       30.63403       23.35827
O         73.13734       29.85167       23.97943
C         74.39041       31.83460       22.14687
C         74.48980       33.04701       23.01727
O         73.40251       33.44488       23.67266
O         75.51951       33.69919       23.07501
H         71.73463       32.98103       22.09694
H         73.07748       30.36481       21.33774
H         74.69394       32.13837       21.12173
H         75.11007       31.06963       22.50893
N         71.16177       30.90298       23.80390
C         70.54050       30.27357       24.96079
C         70.97653       30.79521       26.31361
O         70.41034       30.33234       27.29325
H         70.53589       31.49521       23.24246
H         70.66563       29.17160       24.90289
H         69.44791       30.48390       24.91288
N         71.92216       31.76581       26.46676
C         72.25285       32.34981       27.76812
C         71.97674       33.84242       27.75584
O         71.67585       34.38549       26.71124
C         73.70641       32.01512       28.16913
C         74.77206       32.48120       27.15865
C         76.17687       32.10724       27.57575
N         77.22056       32.40426       26.76793
O         76.38263       31.52827       28.63334
H         72.39761       32.13647       25.63547
H         71.59807       31.92326       28.55843
H         73.78374       30.91024       28.27092
H         73.92159       32.46431       29.16378
H         74.71453       33.58285       27.04002
H         74.58372       32.00185       26.17582
H         77.07002       32.88045       25.86694
H         78.18186       32.14812       27.03859
N         72.01294       34.56208       28.90979
C         71.74526       35.99601       28.98413
C         72.95785       36.67716       29.58180
O         73.38549       36.30493       30.66516
C         70.44394       36.25195       29.80069
C         70.26656       37.73041       30.19588
C         69.22103       35.82047       28.96804
H         72.21937       34.06690       29.79020
H         71.57585       36.43527       27.97725
H         70.47906       35.66442       30.74411
H         70.24024       38.38471       29.30249
H         69.31997       37.86523       30.76244
H         71.09152       38.06034       30.86160
H         69.28688       34.75150       28.68039
H         68.28218       35.97187       29.54168
H         69.15474       36.42992       28.03780
N         73.52319       37.73565       28.93220
C         74.64500       38.50065       29.46100
C         74.14093       39.84329       29.95424
O         72.93772       40.05731       29.96031
C         75.80528       38.61186       28.43419
C         75.63520       39.62774       27.31999
N         74.69419       39.50368       26.35868
O         76.40089       40.57953       27.27639
H         73.07406       38.06625       28.07090
H         75.07169       37.97496       30.34261
H         76.03717       37.60991       28.01820
H         76.70645       38.92512       29.00559
H         74.06470       38.69644       26.32138
H         74.61861       40.21463       25.61572
N         74.99794       40.78583       30.42934
C         74.53647       42.06261       30.95999
C         73.81550       42.90380       29.90815
O         72.83824       43.55316       30.25045
C         75.71584       42.85804       31.54901
C         75.22062       44.04288       32.34208
C         74.46294       43.83766       33.51023
C         75.50216       45.35305       31.92869
C         73.99089       44.92437       34.24765
C         75.02468       46.44074       32.66716
C         74.26685       46.22882       33.82942
O         73.79992       47.26749       34.55036
H         76.00660       40.57486       30.44527
H         73.83263       41.83601       31.79126
H         76.38944       43.16775       30.71947
H         76.30329       42.21567       32.24120
H         74.23875       42.83503       33.85381
H         76.08115       45.53254       31.03169
H         73.40906       44.75031       35.14446
H         75.24273       47.44695       32.33419
H         73.96565       48.18595       34.29547
N         74.25546       42.96188       28.61559
C         73.61046       43.77791       27.57940
C         72.16737       43.34194       27.28673
O         71.46043       44.06559       26.60112
C         74.45751       43.71156       26.28132
C         74.03744       44.70953       25.18808
C         74.91227       44.57183       23.97568
O         75.66692       45.60824       23.56442
O         74.92968       43.52538       23.34638
H         75.09899       42.42476       28.37205
H         73.60461       44.82537       27.95330
H         74.41797       42.67362       25.88186
H         75.51468       43.94055       26.54164
H         74.12264       45.74147       25.59271
H         72.99538       44.54125       24.85606
N         71.66994       42.16408       27.75528
C         70.33636       41.65130       27.46200
C         69.48846       41.51836       28.72099
O         68.33130       41.14080       28.59565
C         70.49642       40.26935       26.81228
C         71.25609       40.33388       25.47867
C         71.60730       38.96271       24.99138
O         72.16404       38.81908       23.91570
O         71.36630       37.88928       25.76276
H         72.27898       41.55831       28.30792
H         69.78952       42.32941       26.77050
H         69.50546       39.79455       26.63152
H         71.06259       39.63418       27.52855
H         72.20985       40.88891       25.58833
H         70.62306       40.85624       24.73261
N         69.97936       41.80840       29.96064
C         69.20296       41.71730       31.17821
H         68.15647       41.39960       30.99338
H         69.68233       40.98655       31.86270
H         69.18761       42.71227       31.67129
H         70.95125       42.10704       30.07397
Ca        72.89327       35.43564       24.42678
O         75.57633       35.94512       25.87706
H         76.21797       36.68840       25.75512
H         76.11292       35.13200       25.70673
O         75.02174       37.99549       23.75499
H         74.70361       38.42296       22.92263
H         75.83599       38.50447       23.99520

Ca 1.0



