%chk=holoCaM.loop4.water2.frame249.chk
%nprocshared=20
%mem=10GB
%nosave
#b3lyp/svp scf=(tight,noincore,xqc) Test 
#IOP(5/87=12) Density=Current Pop=(MK,readradii) iop(6/33=2) iop(6/42=6)

holoCaM.loop4.water2.frame249 

   -3  1 
C         50.00666       75.27177       67.53388
C         50.36225       76.57803       68.17600
O         50.55342       77.51708       67.42876
H         49.09648       75.38942       66.89927
H         50.84720       74.96549       66.87899
H         49.81042       74.48908       68.29111
N         50.44852       76.71219       69.54110
C         50.60709       77.98697       70.25352
C         51.44655       77.84043       71.55007
O         51.33269       76.82346       72.21487
C         49.17200       78.48457       70.57683
C         49.12520       79.85413       71.14005
O         48.51355       80.08277       72.17420
O         49.83871       80.80809       70.51755
H         50.22495       75.88275       70.10599
H         51.07444       78.73851       69.58492
H         48.66663       77.78214       71.27133
H         48.60542       78.55223       69.62956
N         52.26935       78.84484       71.99189
C         53.00218       78.87699       73.26388
C         52.69016       80.15052       74.08985
O         53.24045       80.29558       75.17355
C         54.54405       78.74810       73.00393
C         55.15382       79.93490       72.19213
C         54.82392       77.40978       72.29913
C         56.68291       79.89748       72.02755
H         52.37675       79.66111       71.41295
H         52.70039       78.01242       73.89118
H         55.03073       78.71682       74.00440
H         54.91738       80.88844       72.70594
H         54.71414       79.96345       71.17540
H         54.43050       77.42152       71.25964
H         55.91149       77.20784       72.26415
H         54.34052       76.57165       72.84586
H         57.00722       80.77696       71.42712
H         57.18919       79.94766       73.01384
H         57.02979       78.99280       71.48793
N         51.85648       81.12696       73.61496
C         51.75853       82.48672       74.16195
C         50.38402       83.16526       73.94156
O         50.02021       84.02683       74.72945
C         52.94274       83.31771       73.59462
C         53.03236       83.34591       72.07612
O         52.04864       82.79401       71.35023
O         54.02189       83.79660       71.52194
H         51.47616       80.96699       72.69318
H         51.86625       82.42049       75.26739
H         53.86354       82.83115       73.97734
H         52.91898       84.35720       73.97719
N         49.54538       82.77981       72.94158
C         48.17579       83.23177       72.74477
C         48.05559       84.61046       72.15125
O         46.95856       85.14934       72.12522
H         49.87513       82.08579       72.30527
H         47.64948       83.16228       73.71280
H         47.66522       82.55313       72.02144
N         49.13751       85.22481       71.61582
C         49.13860       86.56416       71.04222
C         48.32767       86.74907       69.74055
O         48.38475       87.84391       69.19624
C         50.60806       86.98340       70.80981
C         51.35918       86.13260       69.81845
O         50.88018       85.10681       69.37240
O         52.60107       86.48658       69.45062
H         50.03596       84.72644       71.66349
H         48.72848       87.26391       71.80305
H         51.16139       86.92422       71.77384
H         50.62128       88.03718       70.47043
N         47.55818       85.76895       69.17602
C         46.81037       85.95145       67.93016
C         47.65978       85.76654       66.68703
O         47.11865       85.84130       65.59170
H         47.46213       84.86553       69.64811
H         46.36564       86.96933       67.89080
H         45.96722       85.22729       67.90387
N         49.00562       85.58869       66.78040
C         49.90813       85.54773       65.64670
C         50.87162       84.39193       65.72966
O         50.95252       83.71430       66.74496
C         50.71472       86.84710       65.56265
C         49.84585       88.05136       65.18694
C         50.73271       89.12730       64.62168
N         51.73844       89.64191       65.36082
O         50.57692       89.49491       63.46573
H         49.42777       85.55904       67.70184
H         49.33899       85.42210       64.70051
H         51.46094       86.72281       64.75237
H         51.26493       87.03975       66.51441
H         49.27670       88.40636       66.07315
H         49.12823       87.75303       64.39048
H         51.87446       89.33636       66.33437
H         52.39536       90.32077       64.95061
N         51.62561       84.10585       64.63123
C         52.45238       82.92278       64.51125
C         53.91797       83.28527       64.31122
O         54.28618       83.85295       63.29325
C         51.89640       82.08568       63.33485
C         52.71915       80.84133       63.02124
C         50.44155       81.69229       63.62580
H         51.52341       84.69799       63.79255
H         52.37177       82.31215       65.43675
H         51.92929       82.70830       62.41336
H         52.35645       80.42786       62.05565
H         53.77984       81.11993       62.87532
H         52.62708       80.06286       63.80357
H         49.79727       82.59155       63.53887
H         50.07207       80.92513       62.91589
H         50.35694       81.28766       64.65811
N         54.81178       82.93918       65.27573
C         56.25603       83.07928       65.20741
C         56.83528       81.98041       64.36075
O         56.11170       81.09460       64.01014
C         56.82315       82.95978       66.65553
C         58.31625       83.09179       66.71399
N         58.91682       84.19677       66.23236
O         58.99652       82.18962       67.16846
H         54.44315       82.51973       66.11573
H         56.50126       84.05205       64.74565
H         56.52204       81.97854       67.09874
H         56.38894       83.76172       67.28800
H         58.35236       84.96018       65.83702
H         59.94365       84.26162       66.21803
N         58.14393       81.95376       64.02683
C         58.83161       80.85675       63.35935
C         58.65130       79.51867       64.09207
O         58.35027       78.52611       63.43989
C         60.32319       81.26813       63.26968
C         61.17645       80.17288       62.72884
C         60.87431       79.59398       61.49048
C         62.24338       79.68167       63.49625
C         61.58967       78.48488       61.05189
C         62.95391       78.57023       63.05782
C         62.61016       77.95366       61.84617
O         63.23527       76.83192       61.45353
H         58.70039       82.77730       64.27034
H         58.41762       80.72367       62.33422
H         60.67842       81.52959       64.29286
H         60.40767       82.17494       62.63450
H         60.05581       79.97066       60.89049
H         62.50459       80.13531       64.44701
H         61.32047       78.01623       60.11511
H         63.74984       78.17300       63.67477
H         63.84720       76.37563       62.04648
N         58.84652       79.41543       65.43650
C         58.70695       78.16374       66.18430
C         57.27450       77.62356       66.23719
O         57.09810       76.45492       66.54954
C         59.33607       78.29956       67.59458
C         58.58720       79.17747       68.62730
C         59.47832       79.45100       69.81307
O         59.95438       78.43006       70.55016
O         59.78232       80.59756       70.10798
H         59.15992       80.25393       65.92545
H         59.32410       77.41884       65.63405
H         60.35566       78.71990       67.44789
H         59.44607       77.28293       68.02212
H         57.67595       78.65446       68.98317
H         58.26847       80.14614       68.19759
N         56.21095       78.41244       65.92356
C         54.81878       77.95939       65.85055
C         54.51117       77.55437       64.41156
O         53.99337       76.47468       64.17392
C         53.87723       79.08213       66.37314
C         54.21117       79.41581       67.83262
C         53.42731       80.58028       68.34797
O         52.79734       80.47757       69.49881
O         53.39435       81.64790       67.78183
H         56.39941       79.39668       65.70131
H         54.65413       77.06779       66.49140
H         52.80944       78.77183       66.31762
H         53.99447       80.00242       65.75853
H         55.28456       79.66779       67.93382
H         54.00631       78.52370       68.46745
N         54.91428       78.35658       63.39926
C         54.80119       78.12644       61.98546
H         54.33316       79.01688       61.51109
H         55.82940       78.03497       61.56908
H         54.21154       77.22235       61.76594
H         55.40872       79.17790       63.64857
Ca        51.01868       82.37276       69.40949
O         48.28938       82.63668       68.66838
H         47.41293       82.62521       69.12676
H         48.08239       82.41423       67.72744
O         50.31300       80.52560       67.37575
H         50.12977       79.65425       67.78152
H         49.50122       80.67773       66.83883

Ca 1.0



