%chk=holoCaM-CaMKII.loop4.water1.frame413.chk
%nprocshared=20
%mem=10GB
%nosave
#b3lyp/svp scf=(tight,noincore,xqc) Test 
#IOP(5/87=12) Density=Current Pop=(MK,readradii) iop(6/33=2) iop(6/42=6)

holoCaM-CaMKII.loop4.water1.frame413 

   -3  1 
C         38.34951       52.69775       54.97941
C         36.93446       52.26962       55.22464
O         36.03112       53.07003       55.04166
H         39.06210       51.86675       55.17070
H         38.45888       53.01400       53.92127
H         38.60367       53.54325       55.64995
N         36.66749       50.99995       55.62518
C         35.32141       50.48831       55.83408
C         34.63097       51.21346       56.98746
O         35.21490       51.30928       58.05770
C         35.40745       48.97270       56.08753
C         34.08122       48.30672       55.99622
O         34.01207       47.10070       56.09427
O         32.96597       49.02253       55.82398
H         37.46325       50.35351       55.74779
H         34.75059       50.62453       54.88569
H         35.88769       48.75275       57.06508
H         36.01938       48.51896       55.27700
N         33.37309       51.72832       56.83729
C         32.68128       52.51843       57.85361
C         31.56930       51.69161       58.50757
O         31.69268       51.40639       59.69107
C         32.17242       53.85988       57.22961
C         33.34088       54.60761       56.52910
C         31.50383       54.74059       58.30064
C         32.93553       55.89848       55.81391
H         32.88985       51.56381       55.95133
H         33.40252       52.77517       58.66221
H         31.41254       53.62669       56.45140
H         33.76089       53.94754       55.74403
H         34.14400       54.83606       57.26257
H         31.07969       55.66154       57.85158
H         30.65618       54.20494       58.77547
H         32.23698       55.02497       59.08476
H         32.58274       56.66636       56.53078
H         33.82024       56.31602       55.28666
H         32.14365       55.69529       55.06240
N         30.45708       51.27489       57.82622
C         29.39778       50.46674       58.45183
C         29.86395       49.04540       58.85202
O         29.08591       48.35484       59.49542
C         28.10587       50.41470       57.57256
C         28.31113       49.74947       56.24400
O         27.38637       49.55522       55.47242
O         29.54854       49.36687       55.93807
H         30.33850       51.58546       56.85484
H         29.09313       50.99074       59.38546
H         27.72885       51.44531       57.39791
H         27.32409       49.85200       58.12765
N         31.11546       48.55996       58.56820
C         31.65651       47.34395       59.17519
C         31.35017       46.01179       58.49851
O         31.76982       45.00479       59.05210
H         31.78463       49.16059       58.07276
H         31.33536       47.30384       60.23946
H         32.76485       47.43162       59.19358
N         30.65942       45.89249       57.32726
C         30.33656       44.58830       56.71642
C         31.53798       43.80623       56.14204
O         31.31961       42.75049       55.56388
C         29.26006       44.77394       55.61945
C         29.73507       45.47581       54.37792
O         28.94758       45.70440       53.47462
O         31.02658       45.81337       54.22733
H         30.29060       46.75115       56.89397
H         29.85386       43.95998       57.49710
H         28.41070       45.34099       56.05777
H         28.87786       43.77724       55.30913
N         32.81819       44.25600       56.24329
C         33.97332       43.60042       55.64647
C         34.02436       43.75497       54.13650
O         34.25152       42.77392       53.44453
H         33.00819       45.09934       56.78884
H         34.04480       42.53795       55.96740
H         34.88364       44.11734       56.02383
N         33.90534       44.99716       53.58270
C         34.15275       45.35452       52.17965
C         34.07394       46.87287       51.96729
O         33.72736       47.60395       52.88715
C         33.27844       44.55675       51.17064
C         31.74706       44.63914       51.28535
C         31.14729       45.96787       50.88276
N         30.37457       46.05915       49.77504
O         31.33420       46.96393       51.56177
H         33.69133       45.74994       54.23952
H         35.20926       45.08201       51.96043
H         33.53837       43.48577       51.28165
H         33.56855       44.82117       50.13157
H         31.41708       44.34025       52.29807
H         31.35231       43.86828       50.58867
H         30.19048       45.23673       49.18288
H         29.96118       46.95997       49.50032
N         34.43416       47.42463       50.77463
C         34.47496       48.86514       50.53023
C         33.58636       49.22554       49.34486
O         33.76388       48.66914       48.26979
C         35.95216       49.29933       50.29855
C         36.07153       50.79039       49.93767
C         36.79345       49.03378       51.56176
H         34.75355       46.80210       50.01661
H         34.11977       49.43585       51.41632
H         36.37814       48.71070       49.45620
H         35.65985       51.42924       50.74635
H         37.13708       51.06307       49.78059
H         35.53636       51.00886       48.99207
H         36.40206       49.62020       52.42300
H         36.78075       47.95802       51.83283
H         37.85141       49.32644       51.39113
N         32.67146       50.23357       49.46136
C         31.90983       50.78878       48.34450
C         32.53219       52.09737       47.90444
O         33.48983       52.56088       48.50628
C         30.43174       51.03377       48.75303
C         29.56362       49.82512       48.55952
N         29.34390       49.34805       47.31069
O         29.00722       49.30922       49.51420
H         32.61047       50.73281       50.35976
H         31.97540       50.13894       47.44499
H         29.95930       51.81117       48.11669
H         30.39044       51.41873       49.79696
H         29.77408       49.80436       46.49163
H         28.71910       48.54425       47.15429
N         32.03803       52.72817       46.80172
C         32.57759       53.97225       46.27192
C         32.45183       55.08386       47.29152
O         33.39450       55.84083       47.46988
C         31.83052       54.37648       44.98650
C         32.53361       55.52310       44.30358
C         33.81495       55.32809       43.75802
C         31.93107       56.78648       44.20770
C         34.48302       56.37857       43.12792
C         32.60551       57.84019       43.58159
C         33.88399       57.63797       43.03839
O         34.54485       58.64277       42.42989
H         31.24867       52.28810       46.30320
H         33.64782       53.80466       46.01920
H         30.77989       54.63590       45.24703
H         31.79890       53.52600       44.27121
H         34.29564       54.35899       43.81585
H         30.94757       56.95914       44.62650
H         35.46795       56.21149       42.70998
H         32.13462       58.81269       43.52034
H         34.16801       59.52986       42.34613
N         31.30755       55.21246       48.01996
C         31.13811       56.19271       49.08434
C         32.24884       56.05442       50.11853
O         32.87026       57.04986       50.46337
C         29.72023       56.07308       49.72130
C         29.44741       54.76578       50.48975
C         28.02364       54.67562       50.95625
O         27.52288       55.60448       51.79262
O         27.31964       53.74434       50.59820
H         30.53732       54.55363       47.83027
H         31.18902       57.21205       48.64027
H         28.97405       56.17030       48.90192
H         29.56459       56.92240       50.42261
H         30.08873       54.73237       51.39066
H         29.66513       53.88821       49.84555
N         32.55440       54.83369       50.64442
C         33.53209       54.64120       51.71340
C         34.96863       54.82856       51.23125
O         35.86112       54.90643       52.06418
C         33.38812       53.23508       52.35147
C         31.93463       52.92481       52.76463
C         31.76527       51.58281       53.39663
O         31.05362       51.47709       54.52827
O         32.16185       50.57339       52.83926
H         32.03276       54.02383       50.28913
H         33.30406       55.39111       52.50417
H         34.05301       53.17238       53.23960
H         33.71114       52.46796       51.61701
H         31.28937       52.88547       51.87256
H         31.55003       53.71157       53.44940
N         35.27675       54.85680       49.90405
C         36.62675       55.00312       49.40675
H         37.26506       54.17704       49.78475
H         36.62266       54.96115       48.29480
H         37.04520       55.98161       49.72092
H         34.53657       54.73764       49.20933
Ca        31.11368       48.35326       54.80439
O         29.04254       49.69644       52.34891
H         29.01918       50.03703       53.27657
H         28.29469       50.16432       51.89953

Ca 1.0



