%chk=holoCaM.loop1.water2.frame166.chk
%nprocshared=20
%mem=10GB
%nosave
#b3lyp/svp scf=(tight,noincore,xqc) Test 
#IOP(5/87=12) Density=Current Pop=(MK,readradii) iop(6/33=2) iop(6/42=6)

holoCaM.loop1.water2.frame166 

   0  1 
C         13.15424       67.14744      -16.67341
C         14.50674       67.14466      -17.31925
O         14.65101       67.74187      -18.37483
H         12.41653       66.67627      -17.35542
H         13.16228       66.58903      -15.71409
H         12.84628       68.19481      -16.46969
N         15.55279       66.49535      -16.73576
C         16.89735       66.48517      -17.29139
C         17.30219       65.04924      -17.58500
O         17.47760       64.27480      -16.65394
C         17.82437       67.16177      -16.27028
C         19.25127       67.28686      -16.68509
O         19.64806       66.90177      -17.77063
O         20.10802       67.84452      -15.82298
H         15.39628       65.99944      -15.84438
H         16.92988       67.07298      -18.23458
H         17.79304       66.59235      -15.31577
H         17.44866       68.18955      -16.07109
N         17.38598       64.60591      -18.87341
C         17.61954       63.19951      -19.20406
C         19.06993       62.74699      -19.02739
O         19.29603       61.54527      -19.04182
C         17.13188       62.87101      -20.64006
C         17.92456       63.59015      -21.74804
C         17.41996       63.20666      -23.14627
C         18.13523       63.97592      -24.27363
N         19.57614       63.71559      -24.30706
H         17.13099       65.26643      -19.62052
H         16.97845       62.59652      -18.52219
H         16.05656       63.14610      -20.72399
H         17.21291       61.77360      -20.80039
H         18.99533       63.32081      -21.65621
H         17.81990       64.68111      -21.63408
H         16.33481       63.44151      -23.21619
H         17.55011       62.11367      -23.30185
H         17.95733       65.06868      -24.15955
H         17.68997       63.65882      -25.24294
H         20.04269       64.10907      -23.45941
H         19.75794       62.68793      -24.37362
H         19.98664       64.18714      -25.14496
N         20.10630       63.63504      -18.97004
C         21.52124       63.23416      -18.95996
C         22.31736       63.85187      -17.80989
O         23.51973       63.63104      -17.76062
C         22.14913       63.52419      -20.34846
C         22.08997       64.95891      -20.78050
O         22.25423       65.24431      -21.95582
O         21.71101       65.90713      -19.91294
H         19.88331       64.63585      -19.03596
H         21.61094       62.13278      -18.83693
H         21.55382       62.93684      -21.08300
H         23.19823       63.16265      -20.40995
N         21.72268       64.56898      -16.81036
C         22.44878       65.04644      -15.63843
C         23.34936       66.25161      -15.86260
O         23.99160       66.66124      -14.90568
H         20.70013       64.68519      -16.80909
H         23.03628       64.20421      -15.21237
H         21.70883       65.35596      -14.86900
N         23.43296       66.90060      -17.05887
C         24.25481       68.09755      -17.28126
C         23.74742       69.36765      -16.56594
O         24.34078       70.41829      -16.76682
C         24.43518       68.34024      -18.79813
C         23.18091       68.61877      -19.57177
O         21.97821       68.67456      -18.97042
O         23.25793       68.77311      -20.77858
H         22.91570       66.51142      -17.85496
H         25.28362       67.89084      -16.91210
H         24.90336       67.43181      -19.23671
H         25.13620       69.18888      -18.95452
N         22.70334       69.34874      -15.68636
C         22.24129       70.50341      -14.92670
C         21.45613       71.54079      -15.71201
O         21.06981       72.52404      -15.09407
H         22.27150       68.45760      -15.44919
H         23.11402       70.98141      -14.42990
H         21.56059       70.14536      -14.12347
N         21.18376       71.42548      -17.04577
C         20.48617       72.46194      -17.81586
C         19.29602       71.90066      -18.59367
O         19.08806       70.69348      -18.57756
C         21.49550       73.15713      -18.76193
C         22.61946       73.85395      -17.97944
O         22.03487       72.25417      -19.69473
H         21.52897       70.60156      -17.55000
H         20.07922       73.23975      -17.13210
H         20.96626       73.95118      -19.32924
H         22.66247       71.64855      -19.22084
H         23.21152       73.12046      -17.39115
H         23.30417       74.36885      -18.68453
H         22.19173       74.60555      -17.28262
N         18.44832       72.73862      -19.27597
C         17.27583       72.27790      -20.02459
C         17.35358       72.73161      -21.48896
O         17.25207       73.92014      -21.76082
C         15.96366       72.72815      -19.29907
C         15.90451       72.04310      -17.90062
C         14.70627       72.38649      -20.12033
C         14.64439       72.33234      -17.08198
H         18.61612       73.75587      -19.23166
H         17.25671       71.17939      -20.03219
H         15.97879       73.83389      -19.17500
H         16.77666       72.37500      -17.29851
H         15.97131       70.93881      -18.02510
H         13.79320       72.78780      -19.63570
H         14.74323       72.85221      -21.12528
H         14.59410       71.29405      -20.21754
H         13.74061       71.92006      -17.57701
H         14.72862       71.82768      -16.09559
H         14.52166       73.42248      -16.92010
N         17.54090       71.80778      -22.48317
C         17.58385       72.11109      -23.92298
C         16.19895       72.41144      -24.48368
O         15.22583       72.37802      -23.75373
C         18.16893       70.90737      -24.73235
C         19.64489       70.66331      -24.43350
O         17.39770       69.74189      -24.55880
H         17.69579       70.83405      -22.18937
H         18.24761       72.98629      -24.09925
H         18.16721       71.13184      -25.81612
H         17.72953       69.25193      -23.76328
H         20.23738       71.57876      -24.64740
H         19.75737       70.38533      -23.38063
H         20.02856       69.83619      -25.06667
N         16.04829       72.65635      -25.81830
C         14.76327       72.77901      -26.50293
C         13.94964       71.49180      -26.34704
O         12.79537       71.57461      -25.95165
C         15.00856       73.10006      -28.00179
C         13.70683       73.34290      -28.77152
O         15.79821       74.26057      -28.09445
H         16.89889       72.72499      -26.39472
H         14.19737       73.63487      -26.07016
H         15.54400       72.23408      -28.46178
H         16.40594       74.14410      -28.87115
H         13.05721       72.44396      -28.75227
H         13.15589       74.20251      -28.33293
H         13.94118       73.57985      -29.83164
N         14.50348       70.26630      -26.60530
C         13.78235       68.99543      -26.45677
C         13.16369       68.86246      -25.07776
O         11.96991       68.62134      -24.96903
C         14.72713       67.77635      -26.63422
C         15.26268       67.57039      -28.05457
C         16.13904       66.30134      -28.09427
C         16.67397       65.95782      -29.49322
N         15.60207       65.59539      -30.42324
H         15.49639       70.23804      -26.88251
H         12.96656       68.93387      -27.21057
H         14.15161       66.85759      -26.37634
H         15.58082       67.85153      -25.92369
H         15.86453       68.44533      -28.37924
H         14.39109       67.45732      -28.73051
H         15.56485       65.42680      -27.71500
H         17.01013       66.45480      -27.41893
H         17.35919       65.08627      -29.39114
H         17.26167       66.80981      -29.89908
H         15.04367       64.79926      -30.03692
H         14.97788       66.41095      -30.61002
H         16.02651       65.29569      -31.33029
N         13.94897       68.97924      -23.98003
C         13.49697       68.77369      -22.60819
C         12.35436       69.70848      -22.26630
O         11.31727       69.23022      -21.82843
C         14.69780       68.94755      -21.65868
C         15.71002       67.81223      -21.88887
C         16.99264       67.96655      -21.14639
O         17.18856       68.86840      -20.35338
O         17.95986       67.08472      -21.40730
H         14.93371       69.22976      -24.14419
H         13.12616       67.73082      -22.48217
H         14.36644       68.91876      -20.60098
H         15.18092       69.92739      -21.86591
H         15.99295       67.75934      -22.95744
H         15.25441       66.83668      -21.61290
N         12.45438       71.04449      -22.48941
C         11.38317       71.98609      -22.24160
H         10.48958       71.50324      -21.79417
H         11.74187       72.77772      -21.55256
H         11.08260       72.45474      -23.20291
H         13.31892       71.41172      -22.89182
Ca        20.00869       67.16234      -20.56395
O         20.88609       70.17878      -21.26386
H         20.55301       71.10576      -21.35950
H         21.52243       70.06918      -22.01554
O         19.89351       67.48388      -23.54042
H         20.79199       67.29388      -23.17168
H         19.96936       67.27130      -24.50348

Ca 1.0



