%chk=holoCaM-CaMKII.loop4.water1.frame342.chk
%nprocshared=20
%mem=10GB
%nosave
#b3lyp/svp scf=(tight,noincore,xqc) Test 
#IOP(5/87=12) Density=Current Pop=(MK,readradii) iop(6/33=2) iop(6/42=6)

holoCaM-CaMKII.loop4.water1.frame342 

   -3  1 
C         13.91431       56.83519       46.98967
C         12.63737       56.04942       46.87087
O         12.59944       54.90592       47.29443
H         14.72578       56.32246       46.43285
H         13.80280       57.85933       46.57121
H         14.19958       56.92789       48.05776
N         11.54115       56.61901       46.30500
C         10.24800       55.95608       46.13751
C         10.39145       54.76153       45.18978
O         10.89885       54.95023       44.09257
C          9.27161       57.00851       45.56652
C          7.82445       56.64998       45.39843
O          7.14314       57.40021       44.72487
O          7.22012       55.59450       45.98777
H         11.63430       57.59644       45.98468
H          9.88580       55.63985       47.13257
H          9.65781       57.29206       44.56237
H          9.29122       57.92253       46.20054
N          9.96548       53.50887       45.54242
C         10.15060       52.31721       44.70419
C          8.83300       51.83963       44.08383
O          8.90342       51.04087       43.15971
C         10.85492       51.19204       45.54337
C         12.20019       51.65814       46.15854
C         11.04930       49.86065       44.79179
C         13.30230       51.96896       45.14128
H          9.49867       53.39063       46.44870
H         10.78845       52.57885       43.83341
H         10.19003       50.95762       46.39951
H         12.57863       50.86750       46.84324
H         12.02106       52.55461       46.78152
H         11.54999       49.12202       45.45516
H         10.07509       49.41117       44.51508
H         11.65738       49.99444       43.87460
H         14.21392       52.30169       45.68055
H         13.56933       51.06402       44.55746
H         12.99607       52.77836       44.44919
N          7.60707       52.28507       44.49553
C          6.35339       51.87581       43.85198
C          5.56247       53.06297       43.29593
O          4.48266       52.84441       42.76440
C          5.51239       50.99197       44.80101
C          5.01608       51.63660       46.06554
O          4.26419       50.90801       46.91233
O          5.26842       52.79911       46.33509
H          7.55019       52.92569       45.29792
H          6.56416       51.22388       42.97599
H          6.12172       50.10442       45.08057
H          4.62497       50.62218       44.24178
N          6.05717       54.33421       43.31860
C          5.38486       55.47375       42.71174
C          4.09847       55.86211       43.41009
O          3.06674       55.93151       42.75885
H          6.99005       54.50794       43.71424
H          5.20535       55.26797       41.63470
H          6.06205       56.35031       42.76241
N          4.10334       56.16739       44.73701
C          2.94600       56.64817       45.48858
C          3.22827       57.99488       46.16996
O          2.40479       58.43948       46.95803
C          2.48274       55.56491       46.49018
C          3.46957       55.14128       47.54515
O          3.10785       54.19523       48.43186
O          4.58723       55.62295       47.61006
H          4.98431       56.05392       45.24683
H          2.07661       56.80778       44.81327
H          2.20637       54.65925       45.90799
H          1.56525       55.92668       47.00324
N          4.33933       58.73119       45.86768
C          4.63817       60.03849       46.43423
C          5.17277       60.01798       47.85469
O          5.50431       61.09187       48.33724
H          4.96845       58.40607       45.12553
H          3.74667       60.69901       46.35621
H          5.44421       60.49910       45.82197
N          5.30024       58.87222       48.58779
C          5.85059       58.84951       49.94469
C          6.97900       57.82692       50.06794
O          7.21293       57.08617       49.12477
C          4.70193       58.62057       50.95466
C          3.95416       57.27730       50.82160
C          4.82314       56.12233       51.22225
N          5.32589       56.06281       52.47322
O          5.08916       55.24213       50.41823
H          4.97862       57.98571       48.18543
H          6.28792       59.84219       50.18825
H          3.96050       59.43316       50.79482
H          5.08507       58.73928       51.98996
H          3.57266       57.15051       49.78703
H          3.07563       57.28401       51.50070
H          5.10725       56.78215       53.17629
H          5.95018       55.29945       52.73539
N          7.74507       57.75553       51.20010
C          8.83591       56.79332       51.38425
C          8.70214       56.10052       52.74696
O          8.85758       56.75918       53.76593
C         10.20347       57.53537       51.22638
C         11.41858       56.67468       51.60535
C         10.39094       58.01107       49.77287
H          7.58170       58.44897       51.94586
H          8.79773       56.00849       50.59735
H         10.20986       58.42117       51.89938
H         12.35494       57.26081       51.48010
H         11.37171       56.37790       52.67032
H         11.48478       55.77407       50.96551
H         11.34903       58.56289       49.66247
H         10.41447       57.13857       49.08339
H          9.57278       58.68914       49.45841
N          8.43316       54.75889       52.83205
C          8.42232       53.99579       54.08839
C          9.82592       53.90086       54.66559
O         10.77070       54.36756       54.05424
C          7.94311       52.52932       53.83968
C          6.46272       52.33423       53.62530
N          5.98592       51.09969       53.34578
O          5.68057       53.25976       53.74925
H          8.23987       54.25111       51.96053
H          7.75940       54.48568       54.83516
H          8.16714       51.88564       54.71454
H          8.50850       52.11365       52.98019
H          6.62593       50.29715       53.25455
H          4.97416       50.94502       53.22232
N         10.03166       53.24941       55.84421
C         11.35382       52.94951       56.37966
C         12.10281       52.01707       55.43624
O         13.20329       52.35846       55.02538
C         11.20902       52.28993       57.76814
C         12.53328       51.88798       58.37391
C         13.51505       52.84824       58.67290
C         12.79133       50.53476       58.65005
C         14.73325       52.45764       59.23964
C         14.00776       50.14740       59.21547
C         14.98347       51.10831       59.51374
O         16.16018       50.74697       60.06361
H          9.20642       52.92026       56.36840
H         11.92455       53.89687       56.50637
H         10.55685       51.39458       57.66977
H         10.69837       52.99637       58.45788
H         13.33857       53.89726       58.47159
H         12.05090       49.77649       58.42717
H         15.48290       53.20477       59.46823
H         14.18876       49.10016       59.42194
H         16.36765       49.82466       60.27214
N         11.56727       50.81440       55.06067
C         12.27996       49.85577       54.21127
C         12.63206       50.39583       52.83436
O         13.41657       49.75794       52.14512
C         11.48959       48.53580       54.05371
C         10.15133       48.70450       53.30391
C          9.44425       47.38731       53.16847
O          8.22545       47.21610       53.71488
O          9.96355       46.46977       52.55255
H         10.64021       50.56128       55.43193
H         13.23595       49.62209       54.73048
H         11.29682       48.11081       55.06235
H         12.12298       47.81048       53.49490
H         10.32440       49.11162       52.28465
H          9.49259       49.41048       53.85106
N         12.09736       51.55227       52.36161
C         12.47233       52.13025       51.08522
C         13.65222       53.05477       51.30773
O         14.66923       52.87818       50.65205
C         11.25294       52.79260       50.42526
C         10.14811       51.74560       50.16972
C          9.06539       52.32633       49.32668
O          8.79164       51.82173       48.25075
O          8.45736       53.46201       49.68756
H         11.42260       52.07481       52.93581
H         12.80038       51.33919       50.37284
H         11.57869       53.23272       49.45656
H         10.84528       53.60524       51.06515
H          9.72712       51.38974       51.13072
H         10.57540       50.87439       49.62620
N         13.62061       53.99994       52.28754
C         14.75517       54.82239       52.65390
H         15.63951       54.63758       52.00977
H         14.47660       55.89334       52.58776
H         15.04077       54.59304       53.70411
H         12.77090       54.10773       52.84855
Ca         7.79970       54.62412       47.91208
O          5.63393       51.88836       49.97926
H          6.33635       51.34456       50.41586
H          5.57082       51.51443       49.06589

Ca 1.0



