%chk=holoCaM.loop3.water2.frame119.chk
%nprocshared=20
%mem=10GB
%nosave
#b3lyp/svp scf=(tight,noincore,xqc) Test 
#IOP(5/87=12) Density=Current Pop=(MK,readradii) iop(6/33=2) iop(6/42=6)

holoCaM.loop3.water2.frame119 

   0  1 
C         -3.35536       17.66987       11.43330
C         -3.03397       17.27157       12.83949
O         -3.13796       18.09921       13.73437
H         -3.67554       18.73281       11.39245
H         -2.45269       17.54178       10.80047
H         -4.17445       17.03163       11.04138
N         -2.64030       15.99756       13.11350
C         -2.30940       15.56435       14.46235
C         -1.06525       16.31000       14.93265
O         -0.02230       16.15452       14.31109
C         -2.08539       14.03403       14.48474
C         -1.93756       13.49015       15.87457
O         -2.05090       14.29993       16.94023
O         -1.74118       12.29915       16.04359
H         -2.59580       15.31806       12.33720
H         -3.18494       15.78506       15.11444
H         -1.18729       13.77464       13.88199
H         -2.96528       13.52715       14.03113
N         -1.10908       17.17646       15.98916
C          0.06112       17.96048       16.39432
C          1.20885       17.11171       16.93392
O          2.31831       17.62119       17.00790
C         -0.28559       19.04926       17.43655
C         -0.81802       18.47425       18.76665
C         -0.86734       19.50655       19.90172
C         -1.76426       20.71796       19.61722
N         -1.81196       21.59965       20.78439
H         -2.01271       17.32594       16.46097
H          0.42516       18.48554       15.48221
H         -1.03378       19.74972       17.00671
H          0.64355       19.62731       17.63727
H         -0.14066       17.67072       19.12370
H         -1.82439       18.03009       18.61461
H          0.16534       19.86237       20.11257
H         -1.24431       18.98559       20.80870
H         -2.79359       20.37493       19.37411
H         -1.36457       21.28810       18.75020
H         -2.22675       21.09104       21.59917
H         -0.84921       21.92720       21.03078
H         -2.40710       22.43077       20.56664
N          1.00742       15.84355       17.38790
C          2.06255       14.99231       17.93271
C          2.27303       13.74817       17.08253
O          3.19186       12.99738       17.38177
C          1.78463       14.67171       19.42002
C          0.37649       14.22442       19.68612
O         -0.34027       14.91263       20.39673
O         -0.14459       13.12801       19.11053
H          0.05498       15.46104       17.36550
H          3.04190       15.51821       17.90621
H          1.93970       15.61214       19.99521
H          2.51066       13.92420       19.80410
N          1.52850       13.49760       15.96530
C          1.83815       12.43620       15.02649
C          1.70069       11.02704       15.55457
O          2.03509       10.12618       14.79733
H          0.76889       14.13225       15.69630
H          2.88357       12.58327       14.67664
H          1.17245       12.52836       14.14061
N          1.23999       10.72383       16.80732
C          1.20811        9.33926       17.27731
C          0.23846        8.46865       16.48279
O          0.28258        7.25627       16.64066
C          0.91402        9.24434       18.79170
C         -0.53431        9.48052       19.15318
N         -1.24395        8.51915       19.79142
O         -1.07153       10.53850       18.87142
H          0.96409       11.47821       17.44845
H          2.24098        8.94914       17.13500
H          1.56251        9.96351       19.33799
H          1.19727        8.22476       19.13086
H         -0.81119        7.61823       20.04289
H         -2.23131        8.67205       20.04073
N         -0.68639        9.01887       15.64165
C         -1.62167        8.24972       14.84579
C         -3.06250        8.48284       15.25224
O         -3.92659        7.95631       14.56787
H         -0.75337       10.04061       15.55106
H         -1.42390        7.15842       14.91484
H         -1.48723        8.54841       13.78323
N         -3.40833        9.20402       16.36630
C         -4.79413        9.36561       16.79811
C         -5.17903       10.82167       17.00999
O         -4.33428       11.65699       17.29057
C         -5.03559        8.68426       18.16330
C         -4.91317        7.18283       18.20445
C         -3.67431        6.53689       18.05598
C         -6.06100        6.41178       18.46079
C         -3.58955        5.14423       18.17335
C         -5.97506        5.02503       18.57065
C         -4.73718        4.38525       18.43408
O         -4.64004        3.04672       18.56046
H         -2.67452        9.60831       16.96240
H         -5.49482        8.92300       16.05711
H         -6.07161        8.94166       18.47717
H         -4.35271        9.11363       18.92709
H         -2.77148        7.10474       17.87650
H         -7.02788        6.88432       18.58556
H         -2.62892        4.65504       18.07488
H         -6.87142        4.45249       18.77351
H         -5.41029        2.49418       18.75839
N         -6.50869       11.12423       17.05708
C         -7.07521       12.36137       17.58099
C         -8.08371       12.01140       18.67152
O         -8.91851       11.14337       18.46424
C         -7.76580       13.22671       16.48505
C         -8.77291       12.43149       15.61224
C         -6.70047       13.92960       15.62453
C         -9.67138       13.33148       14.76283
H         -7.17587       10.39056       16.77445
H         -6.29077       13.00470       18.03903
H         -8.31736       14.03189       17.02425
H         -9.46275       11.84895       16.25080
H         -8.22491       11.71823       14.95867
H         -6.02476       14.52921       16.27333
H         -6.09204       13.19169       15.06214
H         -7.16308       14.64184       14.91288
H        -10.26425       14.00029       15.42411
H         -9.09167       13.94435       14.04622
H        -10.37746       12.70119       14.18214
N         -8.12309       12.73225       19.82662
C         -9.17619       12.57038       20.82645
C        -10.13028       13.74982       20.73993
O         -9.92484       14.62201       19.91462
C         -8.55755       12.43887       22.22830
O         -7.89794       13.61985       22.60293
H         -7.44932       13.49848       19.95254
H         -9.77328       11.65475       20.62740
H         -7.86765       11.56391       22.26516
H         -9.34779       12.23723       22.98094
H         -6.94302       13.50720       22.36594
N        -11.21458       13.83743       21.55921
C        -12.13155       14.97565       21.53339
C        -11.39207       16.26381       21.84106
O        -11.53160       17.22656       21.09884
C        -13.25519       14.77331       22.55355
H        -11.38347       13.07709       22.23380
H        -12.60992       15.05193       20.53075
H        -13.96052       15.63154       22.51436
H        -13.82005       13.84809       22.31113
H        -12.84780       14.68767       23.58306
N        -10.54371       16.32424       22.90446
C         -9.77263       17.50629       23.27572
C         -8.96927       18.05084       22.10575
O         -9.08223       19.23019       21.80393
C         -8.82567       17.15456       24.43401
H        -10.42018       15.46540       23.46481
H        -10.46679       18.29990       23.63024
H         -9.40887       16.78907       25.30641
H         -8.11356       16.35464       24.13292
H         -8.24514       18.04689       24.74930
N         -8.14073       17.23625       21.40079
C         -7.29581       17.68908       20.29554
C         -8.11771       18.28257       19.16471
O         -7.90179       19.43957       18.83083
C         -6.43556       16.51209       19.78744
C         -5.42498       16.09672       20.86921
C         -4.67610       14.84769       20.52897
O         -4.64564       13.92520       21.32542
O         -3.96498       14.75789       19.39711
H         -8.11125       16.24348       21.67725
H         -6.60424       18.48098       20.66459
H         -5.86773       16.80764       18.87707
H         -7.10366       15.67024       19.51585
H         -5.92321       15.93043       21.84657
H         -4.69626       16.92586       20.99957
N         -9.07319       17.55182       18.52952
C         -9.87681       18.05474       17.43388
H        -10.94806       18.03838       17.72459
H         -9.60476       19.09244       17.14802
H         -9.73536       17.40031       16.54821
H         -9.24616       16.58948       18.83290
Ca        -2.37921       13.16528       19.34690
O         -2.06326       11.31833       21.83168
H         -1.15265       10.97478       22.01196
H         -2.60686       10.50574       21.67714
O         -5.23049       11.21130       20.29962
H         -4.83149       11.36991       21.18997
H         -5.86859       10.47023       20.44963

Ca 1.0



