%chk=holoCaM-CaMKII.loop3.water2.frame191.chk
%nprocshared=20
%mem=10GB
%nosave
#b3lyp/svp scf=(tight,noincore,xqc) Test 
#IOP(5/87=12) Density=Current Pop=(MK,readradii) iop(6/33=2) iop(6/42=6)

holoCaM-CaMKII.loop3.water2.frame191 

   0  1 
C         22.57651       66.97830       30.82678
C         23.75340       66.48307       31.61472
O         24.14681       67.15461       32.55405
H         21.70219       67.09926       31.49966
H         22.82570       67.95852       30.36892
H         22.30314       66.27127       30.01533
N         24.33953       65.29250       31.30153
C         25.48973       64.71433       31.99522
C         26.78310       65.40684       31.56183
O         27.55974       64.81638       30.82214
C         25.52994       63.19900       31.67602
C         26.59619       62.38265       32.36715
O         26.91423       61.32625       31.84955
O         27.15221       62.70997       33.55927
H         23.90291       64.73760       30.54881
H         25.33675       64.81342       33.07438
H         25.68118       63.09189       30.57872
H         24.55398       62.72064       31.89384
N         27.07226       66.67761       31.95817
C         28.24271       67.40404       31.48159
C         29.52632       66.73920       31.94388
O         30.32822       66.38813       31.08843
C         28.18190       68.89780       31.87391
C         26.96839       69.58112       31.20258
C         26.97108       71.10441       31.38830
C         25.83400       71.79703       30.60897
N         24.50466       71.45610       31.12051
H         26.43564       67.15573       32.60340
H         28.23577       67.39159       30.36702
H         29.10605       69.38578       31.49212
H         28.14584       69.02687       32.97774
H         26.02982       69.15304       31.60707
H         27.00701       69.37780       30.10964
H         27.93061       71.49746       30.98650
H         26.90969       71.36678       32.46624
H         25.90031       71.53149       29.52964
H         25.97340       72.89731       30.69321
H         23.78755       71.98910       30.57679
H         24.30477       70.43784       31.00498
H         24.42911       71.72550       32.12803
N         29.78845       66.50227       33.26574
C         31.02620       65.84281       33.69791
C         31.20374       64.45260       33.09189
O         32.32499       63.96364       33.07585
C         31.16188       65.76678       35.23369
C         30.12546       64.88674       35.88210
O         28.94273       65.17653       35.82670
O         30.50523       63.78009       36.54842
H         29.10021       66.81424       33.96604
H         31.86088       66.47603       33.32124
H         31.10157       66.78622       35.67020
H         32.16785       65.35612       35.47294
N         30.15566       63.77071       32.55169
C         30.30694       62.52871       31.82053
C         30.83796       61.39252       32.65699
O         31.87761       60.85178       32.30780
H         29.20988       64.16825       32.60982
H         30.97470       62.70816       30.94971
H         29.32074       62.22101       31.41621
N         30.13382       60.92463       33.72772
C         30.50755       59.71146       34.45571
C         29.49705       58.58854       34.22172
O         29.73503       57.48220       34.68736
C         30.69691       59.99330       35.96099
C         29.40445       60.28106       36.69555
N         28.98553       59.45991       37.68829
O         28.73285       61.25722       36.39918
H         29.26361       61.40887       33.98372
H         31.48266       59.33993       34.07213
H         31.40419       60.83983       36.09651
H         31.16990       59.09431       36.41333
H         29.53363       58.62933       37.95742
H         28.10502       59.64902       38.18926
N         28.35235       58.79839       33.50688
C         27.36808       57.78163       33.19834
C         26.01205       58.07881       33.80863
O         25.08121       57.35973       33.48225
H         28.14794       59.72877       33.13381
H         27.68590       56.77334       33.54241
H         27.26474       57.74374       32.09236
N         25.83400       59.05142       34.76006
C         24.56196       59.24094       35.46042
C         24.18225       60.71661       35.53583
O         24.98768       61.55780       35.17962
C         24.68519       58.71591       36.91382
C         25.15352       57.28280       37.03317
C         26.48481       56.93325       36.73666
C         24.27431       56.28544       37.48538
C         26.92159       55.61529       36.87498
C         24.71343       54.96502       37.62250
C         26.03983       54.62627       37.31727
O         26.47888       53.35908       37.45169
H         26.64353       59.59785       35.08492
H         23.75143       58.68115       34.94667
H         23.68911       58.81337       37.39569
H         25.39344       59.34269       37.49500
H         27.19675       57.67832       36.41162
H         23.24774       56.52748       37.73050
H         27.95001       55.36622       36.64435
H         24.02277       54.20767       37.96994
H         25.90357       52.64617       37.76306
N         22.98227       61.09123       36.08727
C         22.70235       62.47078       36.51140
C         21.86465       62.49656       37.79221
O         21.34651       61.47853       38.21959
C         22.03783       63.34855       35.40135
C         20.63734       62.83175       34.99250
C         22.95994       63.49772       34.19281
C         19.92408       63.75604       33.99965
H         22.34873       60.34124       36.39072
H         23.66837       62.93721       36.80435
H         21.91058       64.37056       35.81906
H         19.99723       62.77795       35.89868
H         20.71387       61.81344       34.55532
H         23.93338       63.87691       34.54168
H         23.08836       62.52608       33.67616
H         22.57441       64.24366       33.46990
H         18.90038       63.37636       33.80313
H         19.84952       64.78032       34.41982
H         20.45401       63.79902       33.02639
N         21.70925       63.67820       38.45540
C         20.88954       63.85151       39.65110
C         19.81124       64.89058       39.37400
O         19.71582       65.36217       38.25579
C         21.79436       64.26853       40.82253
O         22.42299       65.49736       40.56661
H         22.19881       64.50697       38.09564
H         20.38811       62.90241       39.93815
H         22.54421       63.46375       41.01232
H         21.20966       64.36159       41.76100
H         23.36491       65.29919       40.32522
N         18.95337       65.29531       40.35333
C         17.93193       66.31886       40.13567
C         18.55279       67.65245       39.74999
O         18.16758       68.21355       38.73308
C         17.08808       66.50251       41.40155
H         19.03164       64.86416       41.28519
H         17.24058       65.98394       39.32977
H         16.29546       67.26088       41.22172
H         16.59718       65.54305       41.66942
H         17.71544       66.83440       42.25574
N         19.52661       68.21388       40.52199
C         20.14087       69.51197       40.24888
C         20.72575       69.58122       38.85386
O         20.39938       70.50857       38.12592
C         21.23907       69.80539       41.27735
H         19.84747       67.68542       41.34869
H         19.36921       70.30836       40.34922
H         22.04237       69.03911       41.22760
H         21.68574       70.80496       41.08522
H         20.80937       69.80716       42.30140
N         21.57534       68.61632       38.40432
C         22.15181       68.62769       37.06201
C         21.05489       68.71501       36.01222
O         21.09622       69.61742       35.18781
C         23.00861       67.37229       36.81093
C         24.24095       67.27429       37.73114
C         25.05987       66.08292       37.33135
O         25.24780       65.16161       38.10909
O         25.54183       66.02255       36.07585
H         21.78599       67.82999       39.03626
H         22.81438       69.51526       36.95027
H         23.36460       67.41189       35.75716
H         22.38182       66.46452       36.92708
H         23.93302       67.18402       38.79352
H         24.86827       68.18425       37.62306
N         20.01978       67.83225       36.01741
C         18.90949       67.87876       35.08893
H         17.97007       68.05851       35.65387
H         19.02413       68.68031       34.33073
H         18.82462       66.90644       34.56431
H         19.99537       67.10869       36.74066
Ca        26.37110       64.17550       35.09526
O         28.24183       63.58396       39.00104
H         29.22130       63.52441       39.13157
H         27.85953       63.11878       39.78714
O         25.75940       61.66508       38.59591
H         24.84610       61.43790       38.90328
H         25.66996       62.56588       38.19762

Ca 1.0



