%chk=holoCaM-CaMKII.loop2.water2.frame481.chk
%nprocshared=20
%mem=10GB
%nosave
#b3lyp/svp scf=(tight,noincore,xqc) Test 
#IOP(5/87=12) Density=Current Pop=(MK,readradii) iop(6/33=2) iop(6/42=6)

holoCaM-CaMKII.loop2.water2.frame481 

   -2  1 
C         55.08616       69.48713       85.84171
C         55.00571       70.23662       87.14013
O         55.75961       69.92625       88.04957
H         56.10867       69.59569       85.42049
H         54.87133       68.41233       86.00872
H         54.36331       69.88512       85.09793
N         54.12892       71.26681       87.28688
C         54.08133       72.10669       88.47664
C         53.64171       71.31238       89.70467
O         52.57455       70.71526       89.67535
C         53.11852       73.29045       88.23713
C         53.28671       74.39096       89.24436
O         54.28736       74.35185       90.14290
O         52.55877       75.36898       89.19919
H         53.51724       71.50270       86.48982
H         55.10147       72.52938       88.61793
H         52.06963       72.92175       88.23262
H         53.32888       73.75059       87.24810
N         54.41541       71.28668       90.82721
C         54.08435       70.55117       92.04417
C         53.90621       71.47442       93.25223
O         53.74291       70.95644       94.34910
C         55.20669       69.53980       92.31236
H         55.29496       71.81733       90.82541
H         53.14055       69.97547       91.92462
H         55.30751       68.84844       91.44839
H         56.17626       70.06026       92.46871
H         54.97928       68.92983       93.21336
N         53.89490       72.83904       93.14071
C         53.81131       73.72932       94.30211
C         53.31783       75.16488       94.00887
O         53.26999       75.94162       94.95313
C         55.16727       73.70969       95.04764
C         56.31700       74.13291       94.17874
O         57.31874       73.27115       93.91787
O         56.35717       75.25723       93.71502
H         53.99509       73.24517       92.21215
H         53.04150       73.33312       95.00124
H         55.36916       72.67583       95.39948
H         55.12422       74.35968       95.94749
N         52.84563       75.57661       92.79074
C         52.21607       76.87637       92.56333
C         53.11582       78.10028       92.65031
O         52.58810       79.19485       92.51010
H         52.80173       74.92171       92.00667
H         51.38376       76.99178       93.29097
H         51.76894       76.88201       91.54501
N         54.45695       78.02353       92.87715
C         55.31717       79.20265       93.02651
C         55.53700       80.02087       91.74095
O         56.27455       80.99523       91.80660
C         56.67064       78.79873       93.65963
C         57.53058       77.87272       92.83957
N         58.73407       77.48884       93.31658
O         57.15186       77.45547       91.75738
H         54.87066       77.09549       93.01798
H         54.84588       79.87674       93.77656
H         56.46795       78.30313       94.63468
H         57.25658       79.71995       93.86876
H         59.06942       77.81953       94.23275
H         59.33194       76.86064       92.76744
N         54.92341       79.72942       90.55594
C         55.08490       80.53197       89.34852
C         56.40266       80.33885       88.61401
O         56.56811       80.97423       87.58207
H         54.24443       78.96313       90.50912
H         54.92597       81.60538       89.59286
H         54.29327       80.23648       88.62664
N         57.36886       79.47796       89.04495
C         58.62043       79.23080       88.32871
C         58.77125       77.75233       87.98804
O         57.94600       76.94198       88.38387
C         59.82113       79.68777       89.20279
C         59.81444       81.19938       89.42691
O         59.80222       79.04255       90.45171
H         57.22177       78.96662       89.91964
H         58.64861       79.79230       87.36883
H         60.78460       79.47275       88.68628
H         60.18341       78.13570       90.31854
H         59.87270       81.72858       88.45153
H         58.89666       81.51931       89.96236
H         60.69929       81.48961       90.03346
N         59.86535       77.33413       87.29294
C         60.22247       75.93817       87.07966
C         61.44849       75.67291       87.92423
O         62.42289       76.40919       87.84079
C         60.44660       75.62297       85.57067
C         59.08174       75.68454       84.83500
C         61.09873       74.23249       85.38993
C         59.16129       75.41150       83.33116
H         60.54164       78.04269       86.96903
H         59.42074       75.25522       87.43741
H         61.14616       76.37426       85.14213
H         58.63997       76.69394       84.97383
H         58.38601       74.93869       85.28141
H         62.08284       74.18879       85.89946
H         60.44583       73.43346       85.79611
H         61.31592       74.01907       84.32520
H         59.51051       74.37977       83.12102
H         58.14721       75.50393       82.88868
H         59.83759       76.14111       82.84036
N         61.45857       74.59938       88.75619
C         62.55601       74.27047       89.64949
C         63.37383       73.16907       89.00812
O         63.02674       72.73244       87.91927
C         61.96876       73.78446       90.99476
C         60.97960       74.73972       91.62249
O         59.96981       75.26100       90.89271
O         61.03784       74.97205       92.81831
H         60.66619       73.93946       88.71828
H         63.21255       75.15460       89.80926
H         62.77681       73.55245       91.72307
H         61.41771       72.83934       90.79254
N         64.48882       72.66985       89.60386
C         65.24941       71.59250       88.98890
C         64.41878       70.30878       88.85745
O         64.34894       69.80554       87.74466
C         66.57716       71.32506       89.72505
C         67.36796       70.26751       88.98615
C         67.81066       70.49831       87.66874
C         67.64022       69.03052       89.59214
C         68.49996       69.50479       86.97026
C         68.33136       68.03906       88.88848
C         68.75800       68.27476       87.57839
H         64.80846       73.07490       90.49776
H         65.53390       71.93459       87.96860
H         66.37791       71.01246       90.76717
H         67.18044       72.25787       89.77224
H         67.61669       71.44280       87.17604
H         67.30481       68.82770       90.60138
H         68.82849       69.68791       85.95502
H         68.53004       67.08439       89.35678
H         69.28699       67.50426       87.03320
N         63.76035       69.70572       89.90449
C         63.04660       68.43565       89.78690
C         61.75094       68.50817       88.98217
O         61.09628       67.48085       88.86944
C         62.80902       68.02794       91.24409
C         62.60689       69.36581       91.91221
C         63.71277       70.19736       91.26907
H         63.68979       67.65752       89.31891
H         62.01236       67.27080       91.40627
H         63.76244       67.61562       91.64917
H         61.62046       69.76064       91.57546
H         62.62826       69.35645       93.02244
H         63.42356       71.25984       91.35553
H         64.69013       70.00693       91.75771
N         61.35026       69.64044       88.33870
C         60.21949       69.68291       87.42062
C         60.76930       69.60437       86.01255
O         60.40963       68.68348       85.29256
C         59.39580       70.96449       87.63532
C         58.76672       71.00303       89.03594
C         58.07914       72.30161       89.33150
O         57.59108       72.51063       90.56568
O         58.06989       73.21518       88.52017
H         61.92393       70.48787       88.40532
H         59.54392       68.80971       87.56777
H         58.58560       71.02614       86.87482
H         60.06399       71.84318       87.50841
H         59.57017       70.89710       89.79533
H         58.05147       70.16572       89.15878
N         61.69134       70.50654       85.57203
C         62.32466       70.43651       84.27209
H         63.42114       70.32113       84.41082
H         61.96089       69.57920       83.66822
H         62.12971       71.37541       83.71529
H         61.99048       71.26791       86.19393
Ca        57.83573       74.63201       91.16931
O         55.36630       76.89300       89.32677
H         54.84375       76.81764       90.16335
H         54.75743       77.33601       88.68420
O         55.98389       74.96552       87.14066
H         55.23702       75.43408       86.69033
H         56.14739       74.16339       86.58435

Ca 1.0



