%chk=holoCaM-CaMKII.loop1.water2.frame200.chk
%nprocshared=20
%mem=10GB
%nosave
#b3lyp/svp scf=(tight,noincore,xqc) Test 
#IOP(5/87=12) Density=Current Pop=(MK,readradii) iop(6/33=2) iop(6/42=6)

holoCaM-CaMKII.loop1.water2.frame200 

   0  1 
C         10.35174       65.95549       28.54588
C          9.87331       66.92975       29.57410
O         10.68600       67.63118       30.16024
H         11.45878       65.98478       28.46428
H         10.03444       64.93021       28.82797
H          9.91068       66.22067       27.56202
N          8.54295       67.02979       29.84238
C          8.00576       67.99358       30.78955
C          8.59166       67.75496       32.17197
O          8.55541       66.62610       32.64252
C          6.47211       67.92408       30.81989
C          5.88705       69.13232       31.47699
O          6.67394       70.14287       31.89171
O          4.67665       69.23803       31.56707
H          7.89185       66.41532       29.32838
H          8.28859       68.99830       30.41222
H          6.13313       66.99436       31.32492
H          6.07722       67.92595       29.78194
N          9.19252       68.77277       32.85223
C         10.02217       68.57506       34.03288
C          9.41668       69.16217       35.30324
O          9.86617       68.77603       36.37345
C         11.39433       69.17978       33.68839
C         12.55118       68.83858       34.62580
C         13.83214       69.48589       34.06322
C         15.10962       69.12694       34.83110
N         15.43859       67.70456       34.71464
H          9.14412       69.71858       32.46121
H         10.13365       67.48225       34.20924
H         11.28558       70.28442       33.60329
H         11.67777       68.78377       32.68635
H         12.64918       67.73407       34.65128
H         12.36036       69.21383       35.65354
H         13.70403       70.59097       34.08851
H         13.97681       69.18579       33.00111
H         15.01249       69.41510       35.90008
H         15.94295       69.71715       34.38783
H         16.36549       67.53263       35.16562
H         14.72466       67.11624       35.19831
H         15.50250       67.43011       33.70666
N          8.38210       70.05746       35.28035
C          7.67159       70.49259       36.48541
C          6.18270       70.13090       36.41884
O          5.47215       70.41344       37.37365
C          7.93829       71.98430       36.79688
C          7.44288       72.98671       35.79706
O          7.66143       74.29706       36.01674
O          6.84050       72.64102       34.79906
H          8.06186       70.42920       34.37591
H          8.06772       69.95178       37.37328
H          9.03638       72.12131       36.90569
H          7.47112       72.23112       37.77549
N          5.66137       69.41910       35.37167
C          4.32303       68.85008       35.37337
C          3.16601       69.80558       35.16468
O          2.04573       69.31388       35.18923
H          6.26847       69.12776       34.59421
H          4.17880       68.28835       36.32197
H          4.25986       68.11130       34.54401
N          3.30793       71.14477       34.92845
C          2.13859       72.00886       34.71150
C          1.33493       71.62827       33.45476
O          0.22501       72.12031       33.31269
C          2.53253       73.51101       34.74890
C          3.46813       73.93151       33.65287
O          4.01872       75.01935       33.68734
O          3.70555       73.09204       32.64176
H          4.25118       71.55808       34.93164
H          1.46543       71.85281       35.58418
H          3.04517       73.68306       35.71980
H          1.63146       74.16016       34.71526
N          1.81181       70.74155       32.52607
C          1.02284       70.20329       31.42308
C          1.56234       70.53136       30.04351
O          1.05511       69.95799       29.08888
H          2.76583       70.37501       32.62304
H         -0.03546       70.53648       31.46386
H          1.02486       69.09692       31.53811
N          2.53718       71.46266       29.83942
C          3.05808       71.81812       28.51755
C          4.57122       71.65939       28.48185
O          5.16063       71.34728       29.50743
C          2.62282       73.25834       28.14271
C          1.10090       73.36476       27.95362
O          3.07525       74.19533       29.08804
H          2.90852       71.97240       30.64931
H          2.65188       71.13301       27.74078
H          3.06820       73.52865       27.16213
H          2.49578       74.13450       29.89247
H          0.56037       73.11310       28.89053
H          0.83052       74.39985       27.65522
H          0.76793       72.67102       27.15220
N          5.26754       71.82453       27.31684
C          6.71092       71.61501       27.21484
C          7.37027       72.90323       26.75174
O          7.12275       73.32533       25.62909
C          7.02236       70.44544       26.23203
C          6.25622       69.15988       26.64126
C          8.54285       70.18461       26.17387
C          6.37389       68.02662       25.61910
H          4.75254       72.07283       26.45753
H          7.12259       71.33616       28.20649
H          6.66797       70.74346       25.21952
H          5.17157       69.38639       26.71983
H          6.60943       68.80674       27.63271
H          8.79345       69.40575       25.42768
H          9.09171       71.09721       25.86645
H          8.91880       69.86336       27.16924
H          7.41741       67.67021       25.51588
H          5.75614       67.16588       25.95128
H          5.99916       68.36541       24.62908
N          8.20797       73.59684       27.57527
C          8.84381       74.84743       27.16590
C         10.03936       74.58737       26.25984
O         10.43208       73.44452       26.06860
C          9.28679       75.70824       28.38611
C          8.12281       76.05614       29.31830
O         10.33470       75.10905       29.10336
H          8.33536       73.25628       28.53622
H          8.09061       75.45346       26.61414
H          9.66867       76.67957       28.00781
H          9.96041       74.35412       29.62246
H          7.72549       75.13804       29.79160
H          8.47592       76.73586       30.12188
H          7.31171       76.56172       28.75306
N         10.68584       75.64108       25.68918
C         11.90383       75.51557       24.89159
C         13.04411       74.94888       25.72365
O         13.86057       74.21243       25.18902
C         12.32815       76.88010       24.28902
C         11.28056       77.42226       23.29943
O         12.62654       77.82075       25.29583
H         10.29287       76.57847       25.84842
H         11.71204       74.82756       24.03740
H         13.25713       76.72490       23.69761
H         11.78189       78.24064       25.60388
H         11.63467       78.37815       22.86054
H         11.12299       76.69269       22.47660
H         10.30464       77.60649       23.79507
N         13.17110       75.27891       27.03910
C         14.22125       74.75797       27.91190
C         14.04627       73.26009       28.09377
O         14.98335       72.51061       27.85780
C         14.20168       75.47769       29.28121
C         14.43703       76.99130       29.10653
C         14.51256       77.72925       30.44680
C         14.71949       79.24662       30.27027
N         13.57594       79.89861       29.62400
H         12.47407       75.92351       27.43798
H         15.21900       74.96481       27.46324
H         15.01596       75.05845       29.91336
H         13.23276       75.30761       29.80114
H         13.60768       77.41566       28.51292
H         15.38829       77.15685       28.55500
H         15.37457       77.32373       31.02042
H         13.58661       77.55313       31.03589
H         15.64471       79.44119       29.68294
H         14.85610       79.69357       31.27913
H         13.73063       80.93243       29.62178
H         13.47584       79.59179       28.63095
H         12.69687       79.69252       30.15206
N         12.83585       72.75874       28.47176
C         12.54010       71.33350       28.63515
C         12.71871       70.53580       27.34486
O         12.65178       69.31554       27.40943
C         11.08971       71.16522       29.14466
C         10.92570       71.73178       30.56902
C          9.49538       71.81202       31.01974
O          8.57887       71.48044       30.28756
O          9.21942       72.27417       32.25272
H         12.08256       73.43744       28.63743
H         13.24289       70.90998       29.38704
H         10.79258       70.09427       29.16766
H         10.41556       71.69139       28.43196
H         11.33333       72.75798       30.63847
H         11.49844       71.08932       31.27059
N         12.95865       71.13317       26.14438
C         13.21575       70.38148       24.93732
H         14.12821       69.76149       25.07106
H         12.34965       69.73222       24.69568
H         13.39126       71.08060       24.09094
H         12.96635       72.15301       26.06792
Ca         5.59878       71.97022       32.49464
O          5.39054       74.71668       30.77311
H          4.85917       75.45831       31.15604
H          5.40632       74.90411       29.80140
O          7.83487       75.06765       32.67183
H          8.38858       75.88729       32.63909
H          8.31561       74.47464       33.30067

Ca 1.0



