%chk=holoCaM-CaMKII.loop1.water2.frame467.chk
%nprocshared=20
%mem=10GB
%nosave
#b3lyp/svp scf=(tight,noincore,xqc) Test 
#IOP(5/87=12) Density=Current Pop=(MK,readradii) iop(6/33=2) iop(6/42=6)

holoCaM-CaMKII.loop1.water2.frame467 

   0  1 
C         69.55799       66.28977       60.04409
C         69.42248       67.67576       59.48545
O         68.51195       67.89802       58.70689
H         70.41376       66.21489       60.74716
H         68.62866       66.01266       60.58426
H         69.72346       65.57295       59.21285
N         70.27988       68.66379       59.86828
C         70.24260       70.04181       59.37916
C         70.81420       70.14052       57.95518
O         71.91824       70.64295       57.78539
C         71.08011       70.92404       60.33992
C         71.01308       72.38187       59.98536
O         70.03265       72.83125       59.18088
O         71.70259       73.17863       60.59684
H         70.97812       68.42759       60.59064
H         69.19831       70.42590       59.42344
H         72.13988       70.59142       60.31025
H         70.71450       70.81184       61.38472
N         70.13411       69.66874       56.87694
C         70.70531       69.65555       55.53316
C         70.84629       71.04347       54.90343
O         71.42939       71.10957       53.83033
C         69.89119       68.70234       54.62757
C         70.01385       67.25004       55.13610
C         69.21341       66.26070       54.28210
C         69.48377       64.79250       54.66826
N         69.10555       64.48302       56.04913
H         69.20631       69.25825       57.01478
H         71.73217       69.22938       55.59910
H         70.29694       68.73168       53.59271
H         68.82708       69.02633       54.59751
H         69.65967       67.18186       56.18433
H         71.08805       66.96307       55.10637
H         69.51158       66.38145       53.21822
H         68.12782       66.48516       54.36947
H         70.56283       64.56256       54.52133
H         68.90156       64.14025       53.98083
H         69.70349       65.00883       56.72494
H         68.09693       64.70650       56.20918
H         69.25726       63.46221       56.21871
N         70.36711       72.18633       55.48638
C         70.54365       73.52041       54.89798
C         71.33806       74.47428       55.79868
O         71.58257       75.59690       55.37819
C         69.17549       74.09772       54.48714
C         68.19793       74.18225       55.62346
O         68.46019       74.95210       56.69491
O         67.15436       73.55166       55.57365
H         69.84367       72.11925       56.37079
H         71.13699       73.45343       53.96010
H         68.74994       73.43787       53.69811
H         69.30827       75.10670       54.03943
N         71.82657       74.09008       57.01154
C         72.70798       74.90650       57.83356
C         72.09408       76.19533       58.33987
O         72.66609       77.24697       58.09166
H         71.64075       73.14026       57.34846
H         73.63261       75.12866       57.25768
H         73.01459       74.31422       58.72050
N         70.96121       76.18834       59.09927
C         70.39710       77.38454       59.72849
C         70.28059       77.23276       61.25228
O         69.69329       78.09828       61.88671
C         69.06747       77.77773       59.05049
C         67.93431       76.80119       59.16661
O         68.06187       75.64907       59.84436
O         66.87162       77.06354       58.62890
H         70.48457       75.29074       59.25285
H         71.05813       78.26282       59.55689
H         69.27277       77.93941       57.96928
H         68.72586       78.74693       59.47577
N         70.89417       76.20740       61.91581
C         70.93907       76.08019       63.36666
C         69.71315       75.45539       64.00942
O         69.77165       75.22853       65.20961
H         71.48113       75.55178       61.38540
H         71.18647       77.05915       63.83278
H         71.77529       75.38849       63.61085
N         68.58995       75.12253       63.30972
C         67.45034       74.41588       63.90817
C         67.14826       73.12190       63.10851
O         68.33276       72.55498       62.67078
C         66.20963       75.34999       63.93616
C         66.38647       76.43971       64.99316
O         65.99411       75.97500       62.69488
H         68.53922       75.35571       62.30984
H         67.68605       74.09636       64.94727
H         65.29955       74.78069       64.22101
H         66.14590       75.30405       61.98433
H         67.27545       77.06772       64.77472
H         65.48626       77.09024       65.01411
H         66.50385       75.97773       65.99699
N         66.41278       72.11144       63.88833
C         65.94773       70.98040       63.04205
C         64.42632       70.93039       63.04759
O         63.84271       70.70646       64.10016
C         66.54703       69.62502       63.54567
C         68.09844       69.66650       63.55356
C         66.04833       68.45088       62.67382
C         68.75359       68.41075       64.13681
H         65.63596       72.54946       64.43343
H         66.29105       71.11737       61.99036
H         66.19871       69.46027       64.58962
H         68.43319       70.51333       64.18793
H         68.47978       69.82303       62.52004
H         64.94403       68.39416       62.67522
H         66.40183       68.56492       61.62723
H         66.39457       67.47479       63.06623
H         69.85548       68.54618       64.15632
H         68.39921       68.24018       65.17560
H         68.54586       67.51218       63.52218
N         63.71857       71.15347       61.90511
C         62.25799       71.13046       61.87495
C         61.73147       69.71681       62.07041
O         62.50489       68.77275       62.09103
C         61.71433       71.69941       60.53494
C         62.13115       73.15481       60.32367
O         62.17571       70.92222       59.46268
H         64.23720       71.38237       61.04653
H         61.87919       71.77824       62.69706
H         60.60136       71.67131       60.56583
H         61.60568       71.14096       58.68001
H         63.23005       73.22384       60.24138
H         61.69037       73.54205       59.38073
H         61.78133       73.78732       61.16618
N         60.39443       69.50311       62.19029
C         59.79388       68.17247       62.23008
C         60.05610       67.44404       60.91969
O         60.42698       66.27922       60.94312
C         58.26611       68.26369       62.47608
C         57.97123       68.81724       63.88748
O         57.64977       69.01979       61.45407
H         59.77504       70.32681       62.21515
H         60.22105       67.57868       63.07020
H         57.84082       67.23605       62.44815
H         57.06673       69.71891       61.84833
H         58.35746       69.85070       64.00739
H         56.87571       68.82678       64.06920
H         58.44182       68.16967       64.65799
N         59.89284       68.09799       59.73474
C         60.06115       67.48607       58.41836
C         61.43600       66.86331       58.27285
O         61.51856       65.68685       57.94804
C         59.83680       68.52715       57.29467
C         58.41342       69.11516       57.31770
C         58.19965       70.12119       56.17955
C         56.82553       70.81304       56.25093
N         55.71138       69.87022       56.13352
H         59.64711       69.09599       59.78321
H         59.29933       66.68450       58.28953
H         59.99266       68.02813       56.31237
H         60.57982       69.34874       57.38643
H         58.22646       69.64478       58.27306
H         57.68773       68.28065       57.22567
H         58.31516       69.60994       55.19924
H         58.97528       70.91542       56.25211
H         56.76490       71.54905       55.41913
H         56.73709       71.37425       57.20815
H         55.67836       69.23077       56.95896
H         54.81496       70.40770       56.11045
H         55.79765       69.31564       55.25143
N         62.55973       67.58910       58.52695
C         63.90915       67.04059       58.42874
C         64.04567       65.81937       59.32072
O         64.37599       64.75639       58.81328
C         64.96816       68.10372       58.80053
C         64.99802       69.26759       57.79352
C         66.06466       70.26733       58.13855
O         66.95688       70.51255       57.34341
O         66.03021       70.91802       59.31486
H         62.43950       68.56266       58.83185
H         64.10282       66.72448       57.37855
H         65.96686       67.61856       58.79345
H         64.77226       68.49108       59.82443
H         64.02394       69.79621       57.77552
H         65.19301       68.86181       56.77640
N         63.76667       65.89137       60.65106
C         63.82180       64.75174       61.54439
H         62.81223       64.57535       61.97284
H         64.14567       63.82277       61.02942
H         64.53117       64.96348       62.37050
H         63.47272       66.79048       61.05055
Ca        68.23683       72.89154       60.45123
O         64.69930       73.64829       57.30752
H         64.99202       74.46655       56.83275
H         63.71065       73.68771       57.27874
O         64.76635       75.11695       59.97467
H         64.73023       75.83509       59.29805
H         64.14020       75.41502       60.68215

Ca 1.0



