%chk=holoCaM-CaMKII.loop2.water2.frame198.chk
%nprocshared=20
%mem=10GB
%nosave
#b3lyp/svp scf=(tight,noincore,xqc) Test 
#IOP(5/87=12) Density=Current Pop=(MK,readradii) iop(6/33=2) iop(6/42=6)

holoCaM-CaMKII.loop2.water2.frame198 

   -2  1 
C          8.09644       72.29275       26.93090
C          7.59483       73.09155       28.09865
O          6.49991       72.83881       28.58097
H          9.04113       71.78148       27.22056
H          7.35985       71.51836       26.63040
H          8.30062       72.96147       26.06993
N          8.39227       74.04748       28.64398
C          8.05810       74.75629       29.87176
C          6.93336       75.77220       29.66765
O          7.04924       76.59370       28.76859
C          9.32144       75.45176       30.41805
C          9.10527       75.77402       31.85751
O          9.12335       76.92732       32.24831
O          8.84199       74.75849       32.70831
H          9.32476       74.19059       28.22342
H          7.76491       73.98466       30.61848
H          9.57489       76.34831       29.80861
H         10.18557       74.75495       30.38708
N          5.83120       75.79066       30.48154
C          4.69740       76.70202       30.29063
C          4.42107       77.65488       31.46392
O          3.54117       78.49101       31.30902
C          3.44395       75.85532       30.03760
H          5.77973       75.10528       31.24547
H          4.87184       77.34058       29.39818
H          3.60031       75.19163       29.16129
H          3.22652       75.22031       30.92562
H          2.56033       76.49818       29.83827
N          5.06761       77.57256       32.66471
C          4.73351       78.42132       33.82878
C          5.95303       79.09615       34.47849
O          5.75571       79.86959       35.40596
C          3.95019       77.58392       34.88373
C          4.73990       76.41517       35.41109
O          4.24393       75.60270       36.17417
O          5.99541       76.27073       34.97204
H          5.75961       76.82315       32.76809
H          4.05156       79.24044       33.51182
H          3.03162       77.19312       34.39544
H          3.64006       78.23041       35.73362
N          7.23177       78.85668       34.06454
C          8.41007       79.49900       34.63668
C          8.75591       79.12764       36.07496
O          9.72316       79.69011       36.57008
H          7.38787       78.23552       33.26553
H          8.27866       80.60107       34.57009
H          9.29523       79.23060       34.01955
N          8.04634       78.22774       36.82255
C          8.35201       77.97463       38.23499
C          9.71813       77.33098       38.47449
O         10.14423       77.30290       39.62064
C          7.21159       77.19235       38.93136
C          7.08016       75.73987       38.53363
N          7.03170       74.76914       39.47478
O          6.97430       75.43372       37.36024
H          7.22395       77.77977       36.40922
H          8.36727       78.97556       38.72254
H          6.25580       77.70815       38.69509
H          7.35163       77.25020       40.03238
H          7.09357       74.99381       40.47754
H          6.89684       73.78544       39.19928
N         10.46108       76.80440       37.45612
C         11.81973       76.30158       37.62091
C         11.96541       74.81374       37.37164
O         13.09580       74.34715       37.41450
H         10.06608       76.78240       36.50852
H         12.20399       76.49416       38.64654
H         12.47503       76.85545       36.91532
N         10.89082       73.98887       37.19429
C         11.01318       72.52989       37.13837
C         10.21155       71.93187       35.98526
O          9.55889       72.66026       35.25035
C         10.51624       71.93472       38.48923
C         11.31437       72.45325       39.69573
O          9.14165       72.16136       38.66895
H          9.94309       74.39258       37.22090
H         12.07570       72.22473       37.01409
H         10.66923       70.83711       38.48980
H          9.02663       73.12284       38.87238
H         12.39232       72.21711       39.57228
H         11.19700       73.55131       39.81313
H         10.94738       71.96458       40.62301
N         10.15498       70.57520       35.84142
C          9.21938       69.88024       34.96757
C          8.07337       69.41600       35.84331
O          8.30592       68.74413       36.83990
C          9.89859       68.67615       34.24515
C         10.98005       69.18557       33.26136
C          8.84530       67.81588       33.50581
C         11.77870       68.06586       32.58761
H         10.68681       69.98877       36.50106
H          8.80765       70.56237       34.19077
H         10.37941       68.03070       35.01413
H         11.70418       69.82114       33.81389
H         10.50308       69.80439       32.47117
H          9.30204       66.92098       33.04092
H          8.08943       67.41845       34.21384
H          8.32372       68.40965       32.72557
H         12.27991       67.43657       33.35278
H         11.13587       67.42729       31.94878
H         12.55265       68.51137       31.92843
N          6.79454       69.71634       35.49310
C          5.62696       69.31409       36.26058
C          4.92840       68.16158       35.55593
O          5.39723       67.71624       34.51742
C          4.67979       70.52742       36.41756
C          5.32528       71.69744       37.11051
O          6.29216       72.25674       36.61717
O          4.80918       72.16103       38.26454
H          6.63055       70.21995       34.61083
H          5.92129       68.94687       37.26820
H          3.79018       70.22923       37.00959
H          4.33225       70.86229       35.41438
N          3.80603       67.60364       36.08931
C          3.06747       66.52004       35.45014
C          2.53869       66.91487       34.06956
O          2.79230       66.15552       33.14658
C          1.93247       66.01394       36.36483
C          1.14021       64.90063       35.71332
C         -0.23809       65.05901       35.49048
C          1.76581       63.70528       35.30939
C         -0.97509       64.04550       34.87161
C          1.02504       62.69686       34.68528
C         -0.34405       62.86691       34.46650
H          3.46309       67.96410       36.99292
H          3.76383       65.66141       35.31913
H          1.26195       66.85549       36.62963
H          2.37443       65.63535       37.31231
H         -0.74279       65.96827       35.79194
H          2.82571       63.55320       35.46729
H         -2.03587       64.17634       34.70297
H          1.51311       61.78381       34.36887
H         -0.91602       62.08579       33.98283
N          1.81239       68.05128       33.81082
C          1.31549       68.39603       32.48189
C          2.41501       68.82450       31.50601
O          2.07665       69.14623       30.37559
C          0.31140       69.51943       32.76578
C          0.95094       70.22232       33.94016
C          1.41524       69.04382       34.79051
H          0.76015       67.54676       32.02534
H          0.04817       70.15926       31.89648
H         -0.62695       69.05819       33.15203
H          1.84786       70.75804       33.55635
H          0.30804       70.95024       34.47861
H          2.23888       69.40054       35.43094
H          0.58651       68.63036       35.40249
N          3.73756       68.82747       31.84696
C          4.82266       69.18190       30.93556
C          5.73852       67.98814       30.66440
O          6.67300       68.14009       29.88923
C          5.66292       70.31395       31.55889
C          4.82922       71.54934       31.93090
C          5.63723       72.58641       32.66341
O          5.08553       73.59301       33.07655
O          6.95196       72.40981       32.90166
H          4.00680       68.57025       32.79873
H          4.41594       69.52074       29.95790
H          6.47636       70.61403       30.86122
H          6.12959       69.91070       32.47970
H          4.00677       71.24556       32.60966
H          4.39124       71.99657       31.01241
N          5.55172       66.77595       31.26285
C          6.42432       65.64697       31.02936
H          7.46139       65.89847       31.33540
H          6.08155       64.77675       31.63117
H          6.40409       65.36525       29.95617
H          4.77783       66.63047       31.91628
Ca         7.85389       75.10274       34.67787
O         10.49371       72.51828       31.96603
H          9.74146       72.15274       32.49529
H         11.25055       72.55469       32.60299
O         10.89091       75.54421       34.50399
H         11.38170       75.08443       33.77933
H         10.83577       76.48963       34.21483

Ca 1.0



