%chk=holoCaM.loop3.water2.frame139.chk
%nprocshared=20
%mem=10GB
%nosave
#b3lyp/svp scf=(tight,noincore,xqc) Test 
#IOP(5/87=12) Density=Current Pop=(MK,readradii) iop(6/33=2) iop(6/42=6)

holoCaM.loop3.water2.frame139 

   0  1 
C         27.48425       90.16002       -7.67862
C         27.63418       89.22967       -6.51380
O         28.73373       89.13178       -5.98746
H         27.75070       91.19027       -7.36167
H         28.16834       89.84259       -8.49350
H         26.44449       90.16333       -8.06608
N         26.57055       88.50926       -6.05313
C         26.66408       87.59820       -4.92207
C         26.34822       86.18836       -5.38685
O         25.25600       85.94554       -5.88240
C         25.72692       88.07097       -3.79769
C         25.93775       87.27919       -2.54052
O         27.03889       87.24861       -2.01604
O         24.91506       86.62198       -1.97130
H         25.65613       88.61045       -6.52090
H         27.69620       87.61811       -4.50971
H         24.66494       88.01310       -4.12496
H         25.95734       89.13209       -3.56101
N         27.29728       85.21516       -5.29150
C         27.11551       83.85278       -5.78216
C         26.02693       83.13245       -5.00142
O         25.02900       82.75708       -5.60163
C         28.47179       83.11979       -5.72655
C         28.44394       81.69768       -6.29704
C         29.86713       81.12212       -6.30534
C         29.89742       79.68109       -6.82271
N         31.26925       79.17275       -6.85224
H         28.21420       85.47473       -4.89571
H         26.82051       83.90732       -6.85545
H         28.84581       83.08735       -4.68008
H         29.19180       83.71894       -6.32883
H         28.05323       81.71746       -7.33830
H         27.77984       81.06071       -5.67364
H         30.28114       81.14120       -5.27314
H         30.50947       81.75598       -6.95687
H         29.46985       79.64038       -7.84898
H         29.28010       79.03937       -6.15564
H         31.69101       79.21191       -5.89568
H         31.26136       78.17973       -7.17845
H         31.84747       79.74121       -7.51347
N         26.14321       82.90883       -3.65837
C         25.09114       82.25205       -2.87274
C         23.79515       83.06187       -2.80276
O         22.81027       82.52702       -2.31186
C         25.58743       81.85861       -1.46417
C         26.23538       82.98321       -0.72328
O         27.41070       82.88001       -0.40613
O         25.58732       84.12657       -0.44737
H         27.01583       83.20119       -3.19472
H         24.83721       81.29360       -3.37776
H         26.35291       81.05986       -1.58579
H         24.75734       81.43515       -0.86018
N         23.69259       84.31919       -3.32093
C         22.43103       85.02445       -3.46101
C         21.75965       85.46996       -2.18044
O         20.66966       86.01295       -2.30345
H         24.51668       84.77096       -3.73080
H         21.73070       84.37119       -4.02715
H         22.59857       85.93861       -4.07142
N         22.29512       85.30621       -0.93072
C         21.55326       85.72989        0.25803
C         21.30706       87.23708        0.28648
O         20.43473       87.67286        1.02363
C         22.20365       85.24997        1.57416
C         23.41629       86.05138        1.98708
N         23.43160       86.70207        3.17605
O         24.38624       86.11748        1.25027
H         23.20345       84.83908       -0.82023
H         20.56999       85.21206        0.18909
H         22.47173       84.17509        1.48174
H         21.44192       85.33074        2.37925
H         22.62513       86.65648        3.81669
H         24.25307       87.25194        3.46511
N         22.05620       88.08935       -0.47407
C         21.81776       89.51750       -0.56848
C         22.95572       90.35209       -0.02557
O         22.89913       91.55924       -0.22141
H         22.83210       87.72106       -1.03933
H         20.89011       89.82298       -0.03967
H         21.68122       89.75511       -1.64612
N         23.98597       89.82248        0.70476
C         25.05713       90.64605        1.26201
C         26.42228       90.15959        0.81393
O         26.54034       89.05812        0.29140
C         25.01745       90.65709        2.80656
C         23.75327       91.25490        3.38275
C         22.51312       90.60190        3.25945
C         23.81331       92.47482        4.07967
C         21.35876       91.16438        3.81298
C         22.65815       93.03584        4.62968
C         21.42578       92.38196        4.49776
O         20.30429       92.91082        5.02723
H         23.99749       88.81293        0.91196
H         24.95404       91.69591        0.90835
H         25.88519       91.25841        3.15638
H         25.14778       89.63113        3.21001
H         22.43374       89.65238        2.74794
H         24.75466       92.99752        4.19602
H         20.41117       90.65011        3.71295
H         22.72385       93.97773        5.15972
H         20.31013       93.74951        5.51058
N         27.50512       90.97707        0.96116
C         28.86530       90.62356        0.56820
C         29.82615       91.02473        1.68955
O         29.78525       92.16714        2.12839
C         29.23470       91.29512       -0.79016
C         28.20047       90.88022       -1.87825
C         30.65723       90.87294       -1.21274
C         28.48207       91.42603       -3.27821
H         27.34275       91.93515        1.31147
H         28.94013       89.53005        0.38615
H         29.21367       92.40113       -0.67458
H         27.19770       91.25488       -1.58259
H         28.15103       89.77169       -1.94991
H         30.69763       89.77666       -1.38078
H         30.97296       91.38606       -2.14223
H         31.40166       91.14880       -0.44053
H         27.65704       91.12574       -3.95876
H         28.54751       92.53316       -3.25920
H         29.41778       90.99938       -3.69360
N         30.75844       90.14704        2.15644
C         31.73336       90.44071        3.20536
C         33.12148       90.57688        2.59829
O         33.23516       90.52169        1.38754
C         31.68283       89.32744        4.26891
O         32.07604       88.09212        3.72654
H         30.82925       89.23197        1.70062
H         31.49811       91.40600        3.70493
H         30.65924       89.26479        4.70704
H         32.35971       89.56277        5.11574
H         31.24939       87.59823        3.48736
N         34.22710       90.78895        3.36449
C         35.56370       90.97609        2.79740
C         36.02108       89.77816        1.98123
O         36.38114       89.95696        0.82641
C         36.58379       91.24914        3.90567
H         34.11247       90.84379        4.38832
H         35.55119       91.87365        2.13796
H         36.64716       90.39190        4.60887
H         37.58746       91.42387        3.46048
H         36.29090       92.15844        4.47142
N         36.03063       88.52611        2.52057
C         36.49469       87.33947        1.80245
C         35.78729       87.18300        0.47032
O         36.45636       87.00920       -0.53907
C         36.28672       86.08675        2.66342
H         35.67973       88.41337        3.48426
H         37.58746       87.42870        1.61087
H         35.21076       85.93761        2.89687
H         36.66737       85.18743        2.13265
H         36.84817       86.18688        3.61734
N         34.43376       87.28251        0.39032
C         33.69244       87.17166       -0.86378
C         34.16640       88.20005       -1.88126
O         34.60294       87.81148       -2.95578
C         32.18227       87.33795       -0.60305
C         31.63136       86.17955        0.23877
C         30.16405       86.32998        0.47751
O         29.32268       85.42954       -0.03503
O         29.72401       87.24313        1.14903
H         33.91807       87.46997        1.26395
H         33.85819       86.16012       -1.29879
H         31.64086       87.34385       -1.57548
H         31.99887       88.30549       -0.09154
H         32.13687       86.10134        1.22295
H         31.80670       85.23398       -0.31909
N         34.11703       89.52933       -1.60901
C         34.55938       90.54227       -2.54007
H         35.63135       90.39109       -2.78695
H         33.94797       90.49910       -3.46531
H         34.44073       91.54874       -2.08268
H         33.75826       89.83643       -0.70577
Ca        27.11927       85.55109        0.31018
O         27.33230       87.76567        2.84886
H         26.73753       87.83693        3.63625
H         28.09387       88.36220        3.05906
O         26.55154       84.78929        3.08566
H         26.21758       83.85923        3.14045
H         26.14345       85.24918        3.86129

Ca 1.0



