%chk=holoCaM-CaMKII.loop2.water2.frame49.chk
%nprocshared=20
%mem=10GB
%nosave
#b3lyp/svp scf=(tight,noincore,xqc) Test 
#IOP(5/87=12) Density=Current Pop=(MK,readradii) iop(6/33=2) iop(6/42=6)

holoCaM-CaMKII.loop2.water2.frame49 

   -2  1 
C         11.49789       69.76646       99.92441
C         10.49860       70.74050      100.48535
O          9.64255       71.22717       99.76221
H         12.53062       70.10068      100.16030
H         11.33638       68.77203      100.39727
H         11.39018       69.65648       98.82602
N         10.55519       71.04534      101.80637
C          9.58038       71.86316      102.52300
C          9.50112       73.30246      102.00559
O         10.53982       73.91514      101.80250
C          9.97201       71.87543      104.01666
C          8.87140       72.31055      104.93149
O          9.12201       72.41294      106.24918
O          7.73892       72.49241      104.51494
H         11.32057       70.61160      102.34783
H          8.59402       71.36149      102.43076
H         10.86800       72.51943      104.15409
H         10.23082       70.84842      104.35021
N          8.29120       73.92473      101.85049
C          8.12502       75.30900      101.39829
C          7.49255       76.22160      102.45230
O          7.31742       77.39685      102.15804
C          7.22963       75.32021      100.15205
H          7.44109       73.39643      102.08445
H          9.10883       75.74891      101.12810
H          7.66676       74.68902       99.35173
H          6.21672       74.93470      100.40223
H          7.11480       76.35434       99.75995
N          7.10791       75.77443      103.68296
C          6.33305       76.60465      104.61049
C          6.36080       76.16003      106.07987
O          5.77074       76.86705      106.88631
C          4.87120       76.67857      104.10565
C          4.33385       75.31009      103.77665
O          3.93559       75.06017      102.64970
O          4.34917       74.33876      104.70174
H          7.23177       74.78325      103.88738
H          6.76628       77.62853      104.63967
H          4.82705       77.29522      103.18368
H          4.22244       77.16902      104.86388
N          7.00385       75.04504      106.52695
C          7.01119       74.63403      107.91924
C          5.61121       74.43074      108.44096
O          5.25502       75.03596      109.44134
H          7.51558       74.44637      105.88271
H          7.54741       75.38759      108.53406
H          7.56206       73.67104      108.00918
N          4.77344       73.55997      107.81820
C          3.43839       73.22857      108.30292
C          3.42580       71.80870      108.86406
O          2.35534       71.28740      109.14379
C          2.37931       73.48323      107.19484
C          2.48792       72.63480      105.95181
N          1.63389       72.82551      104.92238
O          3.35246       71.78565      105.85226
H          5.12722       73.06197      106.98984
H          3.14750       73.89117      109.14641
H          2.45397       74.54982      106.88799
H          1.36532       73.32243      107.61949
H          0.90342       73.54997      104.96275
H          1.71588       72.24931      104.07483
N          4.59855       71.15210      109.13154
C          4.68493       69.82072      109.70659
C          4.35312       68.70859      108.73287
O          4.47945       67.55601      109.12006
H          5.49787       71.63101      108.98743
H          4.05721       69.76152      110.62175
H          5.74074       69.64976      110.01155
N          3.93435       68.96286      107.46113
C          3.63488       67.93888      106.47488
C          4.41963       68.22719      105.16279
O          3.73324       69.20311      104.44429
C          2.09556       67.89890      106.23183
C          1.36164       67.27314      107.41357
O          1.58653       69.20028      106.04025
H          3.79838       69.92946      107.16724
H          3.96715       66.94226      106.84164
H          1.86664       67.25065      105.35423
H          1.38169       69.31870      105.07728
H          0.27085       67.25743      107.20393
H          1.70604       66.22714      107.55842
H          1.53899       67.85137      108.34407
N          4.57739       66.99298      104.36415
C          4.82366       67.15369      102.91419
C          3.51928       67.45003      102.17200
O          2.55133       66.71993      102.33478
C          5.51281       65.86320      102.36826
C          6.89979       65.68981      103.04516
C          5.66148       65.91715      100.83550
C          7.65520       64.42965      102.61492
H          3.81083       66.29970      104.52614
H          5.53517       67.98943      102.73761
H          4.87540       64.98381      102.61130
H          6.76079       65.63080      104.14548
H          7.54056       66.57178      102.82422
H          6.10992       64.98984      100.43054
H          4.66673       65.97802      100.36237
H          6.27798       66.78661      100.52853
H          8.60478       64.35836      103.18541
H          7.04525       63.52472      102.81705
H          7.92640       64.46339      101.54008
N          3.45776       68.49304      101.29299
C          2.28450       68.80702      100.47921
C          2.35585       68.04832       99.16661
O          3.33834       67.37226       98.92384
C          2.23912       70.32491      100.16228
C          2.27090       71.18909      101.38584
O          1.35514       71.95978      101.62138
O          3.29355       71.08263      102.24996
H          4.32046       69.02029      101.11030
H          1.36135       68.51035      101.02508
H          1.31422       70.55725       99.59434
H          3.11490       70.59549       99.53659
N          1.34637       68.10973       98.25783
C          1.42786       67.45043       96.95840
C          2.52633       68.05956       96.07361
O          3.36061       67.28910       95.61774
C          0.04654       67.42679       96.27525
C          0.03677       66.62656       94.98922
C         -0.41117       67.21803       93.79641
C          0.45028       65.27832       94.96835
C         -0.44520       66.47888       92.60950
C          0.42591       64.54811       93.77688
C         -0.02407       65.14679       92.59888
H          0.48877       68.62653       98.50647
H          1.68061       66.38411       97.14664
H         -0.31577       68.45990       96.10212
H         -0.66820       66.93845       96.97334
H         -0.74538       68.24757       93.78598
H          0.79435       64.78453       95.86730
H         -0.80087       66.93891       91.69717
H          0.75194       63.51551       93.76844
H         -0.04955       64.57709       91.67898
N          2.64739       69.40553       95.80364
C          3.70252       69.98292       94.96682
C          5.09633       69.93062       95.59091
O          6.02577       70.42269       94.96632
C          3.23253       71.42469       94.74545
C          2.54019       71.73005       96.05093
C          1.75839       70.44224       96.29092
H          3.75614       69.47965       93.97664
H          4.02012       72.14366       94.43174
H          2.43973       71.41706       93.96318
H          3.32852       71.81955       96.83468
H          1.92093       72.65151       96.06477
H          1.55008       70.38821       97.36872
H          0.81767       70.41262       95.70236
N          5.33236       69.30545       96.77485
C          6.65466       69.10965       97.34749
C          7.06157       67.67467       97.07181
O          8.11128       67.45956       96.48217
C          6.61823       69.44508       98.84720
C          6.21755       70.91433       99.07019
C          6.08065       71.25807      100.51938
O          5.65939       72.35684      100.83796
O          6.39248       70.36343      101.47297
H          4.55264       68.87587       97.28043
H          7.41221       69.77129       96.86976
H          7.61358       69.25366       99.30544
H          5.87216       68.78885       99.34287
H          5.23374       71.10081       98.59361
H          6.96853       71.59232       98.61034
N          6.23170       66.64226       97.38516
C          6.50431       65.27566       97.00512
H          7.43079       64.91658       97.49518
H          5.65381       64.62662       97.30822
H          6.60790       65.21024       95.89990
H          5.34450       66.83060       97.85831
Ca         4.96152       70.96502      103.74401
O          6.29424       70.73068      106.45213
H          6.58868       69.92958      106.95139
H          6.79909       71.47280      106.86537
O          7.57704       69.33557      104.24264
H          7.60484       69.06773      103.29178
H          8.47229       69.09689      104.58846

Ca 1.0



