%chk=holoCaM-CaMKII.loop4.water1.frame195.chk
%nprocshared=20
%mem=10GB
%nosave
#b3lyp/svp scf=(tight,noincore,xqc) Test 
#IOP(5/87=12) Density=Current Pop=(MK,readradii) iop(6/33=2) iop(6/42=6)

holoCaM-CaMKII.loop4.water1.frame195 

   -3  1 
C         25.64074       50.02049       24.63520
C         26.86372       49.46953       23.96421
O         26.97865       49.58175       22.75416
H         24.73418       49.51668       24.24260
H         25.68144       49.86873       25.73516
H         25.57539       51.11059       24.43750
N         27.83647       48.87564       24.70400
C         29.08287       48.37200       24.14511
C         28.83202       47.22538       23.15971
O         28.36076       46.17062       23.56120
C         29.96876       47.89887       25.31228
C         31.30941       47.38988       24.92294
O         31.78153       47.61143       23.82155
O         31.98886       46.65550       25.81604
H         27.69783       48.82190       25.72535
H         29.59539       49.21673       23.63062
H         29.43435       47.07570       25.83145
H         30.12699       48.71964       26.04669
N         29.13975       47.38513       21.84242
C         28.92903       46.37953       20.80155
C         30.17630       45.49562       20.70515
O         30.09477       44.30744       20.98143
C         28.57744       47.10593       19.45191
C         27.28322       47.94809       19.62995
C         28.43504       46.12163       18.27655
C         26.97642       48.90125       18.47338
H         29.47211       48.30952       21.55357
H         28.05790       45.74019       21.07290
H         29.40615       47.80335       19.20249
H         27.39075       48.59942       20.51577
H         26.41537       47.27569       19.80316
H         28.24501       46.66569       17.32795
H         29.37435       45.55009       18.12568
H         27.60181       45.41094       18.45558
H         27.81691       49.60908       18.32614
H         26.77974       48.36162       17.52748
H         26.07150       49.49517       18.72560
N         31.36404       46.02730       20.29882
C         32.62340       45.29171       20.12618
C         33.25757       44.74890       21.42702
O         34.27165       44.07219       21.32902
C         33.62465       46.19048       19.35092
C         33.97396       47.47260       20.08156
O         34.69780       48.29818       19.54706
O         33.44428       47.71658       21.30529
H         31.34661       47.01102       20.01539
H         32.41321       44.41686       19.47046
H         33.15119       46.45989       18.37749
H         34.54923       45.61900       19.11759
N         32.70509       44.95189       22.65879
C         33.15646       44.29833       23.88683
C         34.51451       44.70387       24.44755
O         35.33960       43.81634       24.61409
H         31.84023       45.49770       22.72465
H         33.14752       43.19902       23.71553
H         32.41219       44.49328       24.68252
N         34.81092       45.98841       24.82332
C         36.08801       46.35206       25.45570
C         35.97563       47.17375       26.75200
O         37.01056       47.39129       27.36721
C         37.00148       47.01420       24.40849
C         36.37188       48.17088       23.68931
O         36.16193       48.09667       22.48922
O         36.05970       49.29763       24.34635
H         34.13974       46.73532       24.60266
H         36.62243       45.43110       25.77466
H         37.23524       46.23430       23.65241
H         37.96124       47.33465       24.86809
N         34.79863       47.66258       27.23775
C         34.68377       48.43881       28.46921
C         34.31368       49.88007       28.18592
O         34.06660       50.61692       29.13104
H         33.93726       47.52614       26.70686
H         35.63367       48.45648       29.04684
H         33.91273       47.96242       29.11408
N         34.33274       50.36764       26.91025
C         34.08241       51.74790       26.54748
C         33.01459       51.81583       25.42277
O         33.56865       51.30183       24.22919
C         35.40389       52.41728       26.07431
C         36.39700       52.60027       27.22954
C         37.58171       53.44491       26.82912
N         38.66137       52.90115       26.22224
O         37.57808       54.63877       27.09185
H         34.59350       49.74613       26.14218
H         33.70713       52.31969       27.42885
H         35.17137       53.43388       25.69104
H         35.86010       51.83884       25.24101
H         36.73461       51.63127       27.65496
H         35.86066       53.14994       28.03201
H         38.70548       51.89203       26.02302
H         39.47267       53.49193       25.98181
N         32.72380       53.23553       25.17257
C         31.64536       53.49749       24.21951
C         32.18258       54.46820       23.19934
O         32.34014       55.64254       23.50591
C         30.37696       54.01826       24.95070
C         29.31029       54.55915       23.98715
C         29.76869       52.90124       25.81143
H         32.74760       53.88789       25.99115
H         31.38095       52.57038       23.68206
H         30.67099       54.86469       25.61149
H         28.44601       54.94482       24.56851
H         29.70660       55.41421       23.40054
H         28.96151       53.77091       23.29091
H         28.88056       53.28017       26.35849
H         29.45385       52.04980       25.16792
H         30.49957       52.52980       26.55953
N         32.53375       54.02465       21.95905
C         33.03386       54.91781       20.92826
C         31.92420       55.86034       20.48470
O         30.76551       55.65220       20.81790
C         33.60054       54.07010       19.75279
C         34.26254       54.83499       18.63207
N         35.30683       55.66132       18.86860
O         33.87144       54.67805       17.48616
H         32.48162       53.01625       21.75673
H         33.86654       55.50683       21.36976
H         32.78849       53.43967       19.33074
H         34.37426       53.39102       20.16566
H         35.66500       55.80197       19.82312
H         35.75527       56.16764       18.09016
N         32.23143       56.93869       19.72476
C         31.25068       57.85011       19.14407
C         30.31394       57.08969       18.21793
O         29.11480       57.32343       18.25757
C         32.01757       58.96952       18.41334
C         31.15543       59.80897       17.51192
C         30.01279       60.47154       17.98843
C         31.50231       59.91725       16.15608
C         29.22348       61.22123       17.10994
C         30.72188       60.67287       15.28624
C         29.57587       61.32525       15.75823
O         28.80941       62.05150       14.92167
H         33.22794       57.10107       19.52369
H         30.63695       58.32703       19.94110
H         32.82700       58.51375       17.80130
H         32.50366       59.61098       19.18157
H         29.72508       60.39639       19.02985
H         32.38239       59.41691       15.76957
H         28.33648       61.71935       17.47932
H         31.01056       60.74491       14.24569
H         29.02588       62.14332       13.98256
N         30.79742       56.11257       17.41057
C         29.96396       55.23094       16.59954
C         28.95829       54.49786       17.47237
O         27.77286       54.54885       17.17476
C         30.85473       54.20788       15.85745
C         31.74198       54.89945       14.80860
C         32.70252       53.92997       14.18628
O         33.90555       54.09358       14.31679
O         32.24686       52.88098       13.47629
H         31.81121       55.95382       17.42822
H         29.40568       55.82010       15.83838
H         30.22238       53.45366       15.33854
H         31.48745       53.67052       16.60010
H         32.32609       55.71827       15.27677
H         31.10287       55.34665       14.01646
N         29.36085       53.79341       18.56817
C         28.43297       53.01053       19.38770
C         27.39442       53.87068       20.10044
O         26.44023       53.31136       20.62338
C         29.18350       52.16818       20.43760
C         30.23810       51.25506       19.79703
C         30.92905       50.41715       20.81342
O         31.33258       49.31578       20.50229
O         31.24340       50.91525       22.01672
H         30.36441       53.79905       18.79312
H         27.90022       52.31180       18.70420
H         28.45114       51.54108       20.99578
H         29.68633       52.84864       21.16034
H         31.02543       51.84568       19.29813
H         29.78233       50.59758       19.02838
N         27.52303       55.22481       20.18640
C         26.55472       56.09384       20.82073
H         25.66980       55.54120       21.19775
H         27.03652       56.62268       21.66943
H         26.20811       56.84759       20.08193
H         28.35603       55.67755       19.80199
Ca        33.53203       49.51363       22.73189
O         35.47216       51.82247       22.16742
H         36.19558       51.23343       22.49713
H         35.19324       51.41223       21.31081

Ca 1.0



