%chk=holoCaM-CaMKII.loop2.water2.frame466.chk
%nprocshared=20
%mem=10GB
%nosave
#b3lyp/svp scf=(tight,noincore,xqc) Test 
#IOP(5/87=12) Density=Current Pop=(MK,readradii) iop(6/33=2) iop(6/42=6)

holoCaM-CaMKII.loop2.water2.frame466 

   -2  1 
C         63.80202       86.33628       71.32717
C         63.52511       87.78608       71.03691
O         64.46383       88.55594       70.91932
H         64.42353       85.90805       70.51174
H         64.34347       86.23530       72.28969
H         62.86236       85.74581       71.38660
N         62.24605       88.22386       70.88995
C         61.88326       89.58619       70.50831
C         62.34953       90.63637       71.51192
O         62.03554       90.52889       72.68880
C         60.35717       89.66907       70.33296
C         59.93499       91.02952       69.88104
O         60.39007       91.49635       68.85059
O         59.06917       91.74609       70.62219
H         61.48832       87.53255       71.00653
H         62.33952       89.79957       69.51628
H         59.84864       89.42065       71.28950
H         60.03764       88.93262       69.56484
N         63.06716       91.71525       71.07547
C         63.55846       92.79154       71.92896
C         63.03374       94.17952       71.51564
O         63.48854       95.15016       72.10622
C         65.09197       92.77044       71.87128
H         63.29530       91.77663       70.07439
H         63.26887       92.62295       72.98929
H         65.52239       93.54243       72.54471
H         65.46815       91.77927       72.20612
H         65.45085       92.95481       70.83582
N         62.07524       94.36906       70.55035
C         61.64019       95.71682       70.11772
C         60.29638       95.79434       69.35284
O         59.90545       96.90357       69.01513
C         62.75850       96.35124       69.24957
C         62.99093       95.55420       67.99312
O         63.94746       95.79447       67.27444
O         62.17686       94.52108       67.70955
H         61.68042       93.53188       70.11641
H         61.48568       96.33771       71.02794
H         63.70190       96.36026       69.83583
H         62.51996       97.40282       68.98196
N         59.52170       94.70614       69.06965
C         58.20866       94.77402       68.44404
C         58.16503       95.12706       66.96473
O         57.05448       95.20255       66.45724
H         59.80349       93.78422       69.39099
H         57.58290       95.49355       69.01541
H         57.72849       93.77473       68.53355
N         59.27077       95.35711       66.19410
C         59.15409       95.75636       64.78797
C         58.51034       94.70247       63.87791
O         58.10518       95.07080       62.78407
C         60.50371       96.22392       64.19220
C         61.58083       95.16946       64.10385
N         62.74125       95.45442       63.47201
O         61.41681       94.06154       64.58757
H         60.19998       95.31621       66.62420
H         58.48656       96.64711       64.77467
H         60.90027       97.07433       64.78742
H         60.30794       96.59351       63.16201
H         62.89985       96.38140       63.05227
H         63.47506       94.74109       63.37971
N         58.40706       93.38726       64.23088
C         57.73987       92.37858       63.40919
C         58.67522       91.32570       62.83351
O         58.17635       90.39091       62.22288
H         58.81124       93.08050       65.12355
H         57.20931       92.83944       62.54791
H         56.97224       91.88315       64.04078
N         60.03079       91.43719       62.92051
C         60.98216       90.51099       62.30442
C         61.97441       89.99168       63.33807
O         61.88084       90.36032       64.50126
C         61.73570       91.25646       61.16581
C         60.79161       91.63119       60.02208
O         62.34851       92.42450       61.65160
H         60.42486       92.25688       63.39243
H         60.46657       89.63025       61.86110
H         62.50301       90.60014       60.69903
H         63.17248       92.14472       62.12851
H         61.36359       92.13955       59.21658
H         60.33013       90.71470       59.59466
H         59.98900       92.31357       60.37063
N         63.00431       89.17818       62.95604
C         64.09016       88.79212       63.84788
C         65.28500       89.65505       63.48704
O         65.67000       89.67578       62.32487
C         64.47158       87.28440       63.71494
C         63.24127       86.34882       63.79672
C         65.50939       86.92769       64.80549
C         63.59954       84.87380       63.56649
H         63.09317       88.91575       61.96324
H         63.80177       88.97752       64.90434
H         64.93096       87.12939       62.71274
H         62.52745       86.63176       62.99394
H         62.72866       86.45722       64.77620
H         66.39604       87.58608       64.74283
H         65.06116       87.03974       65.81740
H         65.88998       85.89417       64.69650
H         62.67518       84.26087       63.54491
H         64.12728       84.75000       62.59574
H         64.23920       84.47525       64.37976
N         65.94458       90.36628       64.44133
C         67.11846       91.18350       64.15755
C         68.36392       90.42484       64.54675
O         68.25695       89.32108       65.05775
C         67.02360       92.52943       64.89900
C         65.84776       93.33244       64.42826
O         64.60208       92.83833       64.54158
O         66.01663       94.43881       63.94145
H         65.65829       90.25809       65.42258
H         67.20653       91.37438       63.06487
H         67.94730       93.12232       64.72687
H         66.92891       92.34927       65.99259
N         69.59746       90.92346       64.26283
C         70.80835       90.15396       64.50185
C         71.00596       89.83929       65.98476
O         71.18907       88.66823       66.28435
C         72.05150       90.83853       63.89244
C         73.23618       89.90652       63.92852
C         73.23775       88.74207       63.13891
C         74.34003       90.18113       64.75101
C         74.32478       87.86713       63.17428
C         75.42319       89.29769       64.78926
C         75.41595       88.14275       64.00120
H         69.67016       91.84231       63.79907
H         70.69023       89.19434       63.94930
H         72.28634       91.77597       64.42191
H         71.86158       91.11071       62.83115
H         72.39949       88.51428       62.49151
H         74.35588       91.06847       65.37160
H         74.31865       86.97509       62.56120
H         76.26763       89.50744       65.43194
H         76.25521       87.46086       64.03081
N         70.96993       90.79118       66.97655
C         71.13723       90.49604       68.39952
C         70.26228       89.35244       68.87779
O         70.72869       88.47354       69.58794
C         70.67652       91.79338       69.08898
C         71.08987       92.84348       68.09207
C         70.66819       92.19887       66.77840
H         72.21240       90.30089       68.60858
H         69.56304       91.84091       69.12759
H         71.06178       91.92934       70.12180
H         70.66705       93.85672       68.26299
H         72.20158       92.90664       68.11267
H         69.57530       92.30417       66.60053
H         71.23188       92.69441       65.97281
N         68.95888       89.32929       68.50090
C         67.96974       88.35251       68.93932
C         68.36388       86.95661       68.50978
O         68.43663       86.07300       69.35160
C         66.59187       88.69580       68.33728
C         66.12311       90.10606       68.73077
C         64.88202       90.50896       68.01648
O         64.61091       91.81352       67.96210
O         64.19696       89.71463       67.39428
H         68.66808       90.06741       67.84719
H         67.87217       88.39394       70.04797
H         65.83541       87.95097       68.66766
H         66.66306       88.65185       67.22852
H         66.86660       90.86306       68.42531
H         65.99509       90.22486       69.82639
N         68.63363       86.69502       67.20089
C         68.98463       85.38883       66.69029
H         70.00549       85.42854       66.25641
H         68.95743       84.60711       67.47669
H         68.26634       85.11024       65.89058
H         68.60081       87.46396       66.52258
Ca        62.95734       92.69145       66.79232
O         59.59738       91.05370       66.30219
H         58.76513       91.28082       66.78879
H         59.32414       90.36110       65.65176
O         61.40138       88.83510       67.06458
H         62.10928       88.32225       66.60155
H         60.70143       88.16445       67.26194

Ca 1.0



