%chk=holoCaM-CaMKII.loop2.water2.frame61.chk
%nprocshared=20
%mem=10GB
%nosave
#b3lyp/svp scf=(tight,noincore,xqc) Test 
#IOP(5/87=12) Density=Current Pop=(MK,readradii) iop(6/33=2) iop(6/42=6)

holoCaM-CaMKII.loop2.water2.frame61 

   -2  1 
C         79.32964       66.42230       78.41214
C         77.94291       66.83609       78.81749
O         76.99641       66.51849       78.11372
H         80.08661       66.76144       79.15211
H         79.38059       65.31377       78.35703
H         79.58408       66.85206       77.42273
N         77.74837       67.52482       79.97329
C         76.43191       67.85720       80.50263
C         75.68728       68.84195       79.60414
O         76.24129       69.88307       79.27972
C         76.59158       68.45620       81.91751
C         75.31078       68.48663       82.69734
O         75.30347       69.00926       83.93704
O         74.29437       67.98150       82.25194
H         78.57861       67.76282       80.53841
H         75.86568       66.90420       80.60843
H         77.02357       69.47791       81.84384
H         77.28487       67.82535       82.51297
N         74.40483       68.59110       79.21046
C         73.61128       69.48622       78.37086
C         72.38500       70.04887       79.09602
O         71.65905       70.81283       78.47351
C         73.16600       68.71912       77.11750
H         73.96085       67.72665       79.53836
H         74.22229       70.35420       78.04163
H         74.05080       68.33167       76.56943
H         72.51757       67.86045       77.39447
H         72.59375       69.37959       76.43115
N         72.07189       69.71945       80.38764
C         70.82535       70.13867       81.03299
C         70.91608       70.34415       82.55432
O         69.90448       70.71458       83.13485
C         69.70661       69.13882       80.66393
C         69.94819       67.71525       81.10553
O         69.12001       66.86059       80.83746
O         71.06091       67.36079       81.77639
H         72.64909       69.02175       80.85878
H         70.52031       71.12795       80.62328
H         69.59233       69.13674       79.55791
H         68.74572       69.48936       81.09901
N         72.06573       70.16352       83.27012
C         72.17630       70.41919       84.70268
C         71.37762       69.49840       85.61659
O         71.42262       69.73340       86.81618
H         72.93061       69.91391       82.78500
H         71.86501       71.46911       84.89509
H         73.24172       70.32866       85.00365
N         70.61194       68.46246       85.16244
C         69.74954       67.67835       86.05262
C         70.48576       66.79016       87.06605
O         69.81317       66.20715       87.90501
C         68.70210       66.88527       85.23677
C         69.22519       65.83188       84.29458
N         68.34292       65.14085       83.53677
O         70.42127       65.60306       84.19774
H         70.56382       68.28657       84.15128
H         69.15231       68.40637       86.64570
H         68.12764       67.61570       84.62531
H         67.99075       66.39783       85.93730
H         67.33252       65.32970       83.60327
H         68.65697       64.42208       82.87621
N         71.84072       66.63429       87.06545
C         72.57813       65.88794       88.07968
C         73.04531       64.51280       87.62845
O         73.83450       63.91605       88.34662
H         72.39708       67.11093       86.35160
H         71.98342       65.76033       89.01013
H         73.46272       66.50086       88.35913
N         72.54683       63.90809       86.51129
C         72.90953       62.55359       86.08141
C         73.27031       62.53295       84.61123
O         72.50762       63.06411       83.82821
C         71.73401       61.54670       86.30969
C         71.41869       61.37863       87.79501
O         70.54054       61.84288       85.61418
H         71.82429       64.40462       85.97569
H         73.76566       62.15641       86.67134
H         72.08524       60.55683       85.94022
H         70.56899       62.75222       85.23035
H         71.05123       62.33005       88.23121
H         70.63664       60.59962       87.92240
H         72.32715       61.04852       88.34358
N         74.34417       61.83430       84.14227
C         74.56357       61.60966       82.70894
C         73.33954       60.94251       82.09193
O         72.90185       59.90446       82.57041
C         75.87306       60.78037       82.45633
C         77.08655       61.74148       82.58875
C         75.88146       60.09639       81.06754
C         78.45890       61.08654       82.42830
H         74.96898       61.37530       84.82297
H         74.69018       62.58473       82.19184
H         75.93494       59.95813       83.20405
H         77.05892       62.23482       83.58323
H         77.00413       62.53043       81.80761
H         76.79230       59.48267       80.92323
H         75.04162       59.37469       80.98003
H         75.80435       60.84386       80.25178
H         78.61162       60.31178       83.20636
H         78.58749       60.64006       81.42143
H         79.24331       61.86601       82.53474
N         72.80129       61.47203       80.95369
C         71.72764       60.86394       80.18424
C         72.31847       60.28050       78.91070
O         73.51611       60.41144       78.70140
C         70.61577       61.89551       79.87806
C         69.88808       62.33616       81.12462
O         68.73278       61.98381       81.29974
O         70.47087       63.13148       82.04382
H         73.25350       62.29740       80.53619
H         71.28221       60.00887       80.73894
H         69.87193       61.40572       79.21461
H         71.01722       62.77901       79.33280
N         71.56525       59.54578       78.04753
C         72.14747       58.85163       76.90317
C         72.74686       59.80487       75.86747
O         73.90267       59.59143       75.53378
C         71.15514       57.83580       76.29271
C         71.77657       56.99564       75.19496
C         71.20440       56.97551       73.91108
C         72.92136       56.21136       75.44279
C         71.76512       56.19014       72.89839
C         73.48264       55.43518       74.42463
C         72.90424       55.42296       73.15406
H         70.56497       59.40358       78.26083
H         72.97841       58.22625       77.29957
H         70.24735       58.34179       75.91862
H         70.82764       57.14504       77.10009
H         70.32037       57.56137       73.69368
H         73.38524       56.19555       76.41999
H         71.31514       56.17499       71.91439
H         74.36513       54.83982       74.62233
H         73.33739       54.81681       72.36878
N         72.07756       60.87309       75.31375
C         72.67103       61.76427       74.31235
C         73.99444       62.39312       74.72052
O         74.68810       62.93209       73.86882
C         71.63811       62.89105       74.18053
C         70.34245       62.16935       74.45349
C         70.72227       61.27045       75.62718
H         72.79250       61.16583       73.38241
H         71.76542       63.60763       75.02773
H         71.69080       63.46297       73.22988
H         69.46389       62.82253       74.64053
H         70.13345       61.52489       73.56956
H         70.73131       61.81802       76.59573
H         69.99550       60.44144       75.65869
N         74.36951       62.41409       76.02493
C         75.57120       63.05182       76.53558
C         76.68122       62.02640       76.54403
O         77.72578       62.27487       75.95937
C         75.25981       63.63830       77.93022
C         74.14553       64.70025       77.78905
C         73.55864       65.14831       79.08104
O         72.53084       65.80732       79.06187
O         74.02860       64.71476       80.25742
H         73.72645       62.01685       76.72335
H         75.87424       63.90920       75.89187
H         76.16241       64.09153       78.39030
H         74.91561       62.81592       78.59693
H         73.28695       64.24988       77.24867
H         74.49963       65.57505       77.20446
N         76.49336       60.81144       77.12759
C         77.48027       59.75825       77.07224
H         78.40599       60.07452       77.59366
H         77.08005       58.84433       77.56246
H         77.70713       59.51194       76.01227
H         75.60079       60.60432       77.58751
Ca        72.27747       64.38142       81.57417
O         73.52611       66.08861       84.43080
H         73.36023       67.06222       84.37193
H         74.17882       65.99510       85.17033
O         75.73417       65.13287       83.11132
H         75.96579       64.64604       82.28335
H         76.59990       65.45519       83.46557

Ca 1.0



