%chk=holoCaM.loop2.water1.frame79.chk
%nprocshared=20
%mem=10GB
%nosave
#b3lyp/svp scf=(tight,noincore,xqc) Test 
#IOP(5/87=12) Density=Current Pop=(MK,readradii) iop(6/33=2) iop(6/42=6)

holoCaM.loop2.water1.frame79 

   -2  1 
C         91.46681       33.11891      101.16645
C         90.61696       33.88534      100.18912
O         89.95239       33.28446       99.35813
H         92.52791       33.43323      101.07945
H         91.11834       33.33431      102.20093
H         91.39615       32.02409      100.99650
N         90.57199       35.24121      100.27264
C         89.69400       36.09127       99.47247
C         90.05227       36.08923       97.98553
O         91.20296       36.34060       97.65575
C         89.78896       37.54173       99.99679
C         88.71797       38.44673       99.45596
O         88.73124       39.75370       99.77409
O         87.80126       38.00326       98.78610
H         91.14782       35.68439      101.00652
H         88.64903       35.74847       99.63630
H         90.79189       37.95209       99.74741
H         89.67288       37.55250      101.10135
N         89.08888       35.89161       97.03540
C         89.32366       35.96963       95.59432
C         88.47044       37.03254       94.88758
O         88.69731       37.23400       93.70225
C         89.01001       34.60621       94.96626
H         88.13897       35.69138       97.35171
H         90.39013       36.21186       95.39792
H         89.21001       34.61955       93.87299
H         89.63534       33.81429       95.42786
H         87.93839       34.34917       95.12363
N         87.43561       37.68952       95.49750
C         86.51298       38.57989       94.78287
C         86.31924       39.95056       95.44195
O         85.58087       40.75399       94.88799
C         85.15906       37.85426       94.62737
C         84.59657       37.40000       95.94314
O         84.34938       38.29624       96.90834
O         84.38579       36.21549       96.14978
H         87.20972       37.46847       96.47296
H         86.88360       38.78470       93.75528
H         85.30782       36.96223       93.98062
H         84.42471       38.51879       94.12352
N         86.93095       40.29874       96.60647
C         86.76861       41.59240       97.25072
C         85.34653       41.88219       97.68304
O         84.83206       42.93293       97.32611
H         87.56925       39.63762       97.05779
H         87.13400       42.39735       96.57533
H         87.39898       41.61210       98.16566
N         84.66643       41.01697       98.49010
C         83.36095       41.32309       99.07800
C         83.40986       41.26698      100.60829
O         82.37193       41.44253      101.23178
C         82.24456       40.43581       98.47574
C         82.29689       38.95728       98.75294
N         81.32692       38.15897       98.25196
O         83.19947       38.46862       99.41167
H         85.11114       40.11685       98.72512
H         83.05587       42.35985       98.81428
H         82.24586       40.57955       97.37271
H         81.26748       40.80258       98.85971
H         80.56048       38.55119       97.68596
H         81.33698       37.14736       98.42681
N         84.58588       41.08049      101.28608
C         84.69763       41.08335      102.73849
C         84.12717       39.85665      103.43067
O         84.19320       39.81571      104.65062
H         85.47068       41.01122      100.76623
H         84.21886       42.00488      103.13669
H         85.77519       41.12261      103.00787
N         83.55137       38.82923      102.74379
C         82.93843       37.66443      103.37484
C         83.49971       36.37393      102.80054
O         83.47765       36.20829      101.59045
C         81.40900       37.70155      103.14679
C         80.77760       38.92348      103.81611
O         81.10101       37.73040      101.77446
H         83.49199       38.88829      101.72443
H         83.09833       37.66857      104.47582
H         80.95193       36.80398      103.62957
H         80.95499       36.79261      101.48326
H         81.17271       39.86346      103.37611
H         79.67738       38.90309      103.67149
H         80.99184       38.91795      104.90629
N         83.95568       35.37820      103.61586
C         84.35091       34.06505      103.10176
C         83.14536       33.42663      102.40822
O         82.13134       33.20983      103.05732
C         84.91387       33.15116      104.24593
C         86.22600       33.76454      104.81576
C         85.17351       31.71497      103.74329
C         86.85590       32.96541      105.96131
H         83.96467       35.54280      104.63346
H         85.16863       34.19869      102.36610
H         84.15295       33.08434      105.05519
H         86.02154       34.78254      105.20542
H         86.98002       33.85577      104.00268
H         85.49198       31.04873      104.56937
H         84.24630       31.25951      103.34612
H         85.95606       31.70914      102.96014
H         87.19539       31.96496      105.62348
H         87.75503       33.50164      106.33192
H         86.13645       32.85175      106.79868
N         83.20421       33.08705      101.08518
C         82.13389       32.38772      100.37606
C         82.34976       30.89504      100.49107
O         83.31780       30.48015      101.10689
C         82.10730       32.78805       98.88258
C         81.80632       34.24051       98.68262
O         82.63677       35.17386       99.17136
O         80.81797       34.58223       98.05299
H         84.09140       33.22153      100.58552
H         81.14724       32.62519      100.83266
H         81.32471       32.20663       98.35150
H         83.08279       32.55205       98.40705
N         81.46829       30.01337       99.94552
C         81.63145       28.57415      100.08032
C         82.91311       28.06691       99.42154
O         83.68735       27.44742      100.13724
C         80.38219       27.82267       99.57773
C         80.41336       26.31534       99.78116
C         81.08181       25.70248      100.86600
C         79.71883       25.49677       98.87340
C         81.06679       24.31414      101.01787
C         79.69927       24.10805       99.03688
C         80.37568       23.51728      100.10573
H         80.63187       30.37680       99.46309
H         81.69008       28.37208      101.17092
H         80.19295       28.05649       98.51046
H         79.50331       28.20832      100.13805
H         81.62290       26.27413      101.60386
H         79.18281       25.93461       98.04071
H         81.58960       23.85689      101.84861
H         79.15651       23.48918       98.33493
H         80.36121       22.44252      100.23078
N         83.24635       28.26536       98.10240
C         84.45658       27.70722       97.51524
C         85.72339       28.32346       98.07808
O         86.78526       27.76550       97.83429
C         84.28508       27.94680       96.01313
C         83.49213       29.23742       95.99451
C         82.48195       29.00643       97.12118
H         84.50432       26.61157       97.70411
H         85.22230       27.93503       95.41482
H         83.60658       27.16004       95.61200
H         84.18324       30.05551       96.30315
H         83.03949       29.50742       95.01667
H         82.13306       29.99493       97.47797
H         81.63225       28.37761       96.78063
N         85.70799       29.44735       98.85010
C         86.90272       29.92391       99.52904
C         87.16880       29.00647      100.70721
O         88.23805       28.41936      100.78242
C         86.77794       31.40137       99.95640
C         86.47493       32.28867       98.73645
C         86.76992       33.76382       98.96704
O         86.21534       34.27305      100.14121
O         86.25228       34.50880       97.90450
H         84.82630       29.96114       98.98689
H         87.76543       29.90145       98.82413
H         87.75382       31.69735      100.40103
H         85.98184       31.55276      100.71292
H         85.41880       32.14228       98.42981
H         87.12764       31.99733       97.88552
N         86.19000       28.79219      101.63235
C         86.29450       27.86442      102.73791
H         86.11847       28.40463      103.69112
H         85.51047       27.08338      102.62669
H         87.28312       27.36453      102.77918
H         85.29582       29.28198      101.53023
Ca        85.26510       36.09775       99.18037
O         86.14290       38.02924      101.35675
H         86.81127       37.37932      101.68906
H         86.60636       38.90276      101.39064

Ca 1.0



