%chk=holoCaM.loop2.water2.frame462.chk
%nprocshared=20
%mem=10GB
%nosave
#b3lyp/svp scf=(tight,noincore,xqc) Test 
#IOP(5/87=12) Density=Current Pop=(MK,readradii) iop(6/33=2) iop(6/42=6)

holoCaM.loop2.water2.frame462 

   -2  1 
C         13.45915      100.35604       60.08827
C         13.79818      101.67363       59.44582
O         14.95070      101.90409       59.11091
H         12.69425       99.82780       59.47881
H         14.35471       99.70464       60.17128
H         13.04689      100.52868       61.10506
N         12.80879      102.58064       59.21941
C         13.00848      103.87895       58.57085
C         13.83456      104.77777       59.48607
O         13.31414      105.23738       60.49338
C         11.59591      104.45521       58.27361
C         11.33211      105.73603       57.51603
O         10.18368      106.14258       57.52809
O         12.23098      106.42136       56.78200
H         11.85232      102.30007       59.49043
H         13.53838      103.70505       57.62044
H         11.10623      104.58089       59.26293
H         11.02648      103.67621       57.71950
N         15.16332      104.99111       59.24931
C         16.00900      105.78620       60.13691
C         15.73356      107.27730       60.02546
O         16.20152      108.01911       60.87819
C         17.49154      105.54648       59.81546
H         15.60434      104.50671       58.45901
H         15.83176      105.44542       61.18154
H         17.71904      105.86426       58.77396
H         18.14321      106.11691       60.51221
H         17.73482      104.46756       59.91752
N         15.07112      107.79644       58.95246
C         14.87115      109.22397       58.73047
C         13.39375      109.58206       58.57295
O         13.10294      110.74804       58.34382
C         15.74908      109.67157       57.54056
C         15.50849      108.90729       56.27189
O         16.49334      108.15174       55.75010
O         14.43581      108.97496       55.70145
H         14.74689      107.16100       58.21226
H         15.23360      109.81428       59.60067
H         16.81019      109.50839       57.83325
H         15.62029      110.75875       57.35068
N         12.40094      108.66150       58.76247
C         10.98536      109.00195       58.77929
C         10.37415      109.40943       57.44763
O          9.20297      109.76117       57.46548
H         12.64424      107.69619       59.02116
H         10.83601      109.82393       59.51315
H         10.40962      108.12891       59.15296
N         11.06193      109.41541       56.26611
C         10.46204      109.93272       55.03188
C          9.28953      109.10300       54.50833
O          8.53112      109.61923       53.69852
C         11.50118      110.09484       53.90439
C         11.92282      108.77434       53.30204
N         11.64956      108.50273       52.00454
O         12.49498      107.94052       53.98643
H         12.04619      109.12694       56.26178
H         10.09697      110.95509       55.28040
H         12.39040      110.64767       54.27636
H         11.03718      110.71576       53.10755
H         11.15219      109.18274       51.41133
H         11.92604      107.60492       51.58927
N          9.12099      107.79883       54.86964
C          8.03634      106.95100       54.39839
C          8.50626      105.66472       53.72907
O          7.65344      104.83408       53.45802
H          9.79026      107.37903       55.52290
H          7.35569      107.49011       53.70263
H          7.44041      106.65977       55.28895
N          9.81754      105.42655       53.40900
C         10.28200      104.17185       52.79320
C         11.64338      103.75836       53.36952
O         12.18817      104.48654       54.18358
C         10.37947      104.32491       51.25205
C          9.03000      104.67296       50.60939
O         11.32359      105.30865       50.92827
H         10.50554      106.17470       53.56040
H          9.55972      103.35422       53.01057
H         10.70554      103.34692       50.83062
H         11.53392      105.20403       49.96373
H          9.14101      104.71706       49.50500
H          8.27371      103.89622       50.85059
H          8.66674      105.66304       50.95528
N         12.26030      102.59834       52.96977
C         13.61023      102.22081       53.40260
C         14.54334      102.06437       52.20484
O         14.31301      101.22624       51.34658
C         13.62339      100.95427       54.31435
C         12.94489       99.70811       53.68979
C         13.01767      101.31042       55.67959
C         13.06447       98.46017       54.56921
H         11.76874      101.97211       52.31736
H         14.04525      103.03167       54.02381
H         14.69091      100.70400       54.50463
H         13.43602       99.46183       52.72852
H         11.86920       99.90453       53.49708
H         11.94340      101.57226       55.59033
H         13.14483      100.49003       56.41297
H         13.57054      102.17103       56.09492
H         14.12873       98.25471       54.79489
H         12.51239       98.57547       55.52294
H         12.63438       97.58537       54.03901
N         15.64822      102.86255       52.10778
C         16.65591      102.75737       51.04859
C         17.42810      101.43573       51.20948
O         17.15911      100.71070       52.15057
C         17.55471      104.03075       51.13754
C         18.37538      104.40518       49.92408
O         19.35616      103.76780       49.58754
O         18.07203      105.53084       49.24821
H         15.77802      103.58653       52.82866
H         16.12766      102.78947       50.06954
H         18.18935      103.99883       52.04965
H         16.85627      104.88769       51.25756
N         18.38804      101.04591       50.33001
C         19.15670       99.79878       50.42159
C         19.92108       99.61087       51.74593
O         19.72651       98.56005       52.34143
C         20.07027       99.69227       49.17752
C         20.85693       98.40839       49.02298
C         20.23245       97.14891       49.10205
C         22.23117       98.46854       48.72667
C         20.97179       95.97883       48.89568
C         22.96115       97.29701       48.50391
C         22.33280       96.05313       48.59015
H         18.55481      101.64578       49.51636
H         18.43044       98.95934       50.34958
H         20.75296      100.56752       49.13547
H         19.40358       99.75397       48.29016
H         19.17654       97.06414       49.31872
H         22.73474       99.42308       48.63773
H         20.48680       95.01324       48.96052
H         24.01294       97.35452       48.25415
H         22.89924       95.14754       48.41366
N         20.77623      100.53029       52.30332
C         21.50162      100.30902       53.55648
C         20.55880      100.10209       54.73005
O         20.80052       99.21624       55.53812
C         22.39461      101.55268       53.68443
C         21.61549      102.62283       52.95669
C         21.04483      101.84943       51.76815
H         22.17689       99.42628       53.50930
H         22.72858      101.80378       54.71515
H         23.30129      101.37645       53.06358
H         20.78517      102.94346       53.61858
H         22.18753      103.53452       52.68243
H         20.13902      102.38628       51.44785
H         21.77937      101.75258       50.94100
N         19.42712      100.83740       54.84303
C         18.43238      100.66580       55.89559
C         17.90637       99.24052       55.89400
O         17.94784       98.59551       56.93235
C         17.31763      101.69787       55.67308
C         17.88600      103.11724       55.87754
C         16.87568      104.13787       55.51823
O         17.11469      105.02011       54.70850
O         15.69808      104.07895       56.13460
H         19.23440      101.52310       54.10156
H         18.88178      100.86833       56.89503
H         16.48176      101.53451       56.39117
H         16.91501      101.58809       54.64308
H         18.79895      103.31006       55.28041
H         18.14567      103.24082       56.95228
N         17.46891       98.66385       54.74213
C         17.05929       97.27970       54.63245
H         16.03856       97.22329       54.20939
H         17.74898       96.75610       53.93712
H         17.07628       96.75276       55.60853
H         17.47867       99.21320       53.88017
Ca        14.20243      105.68083       56.13874
O         14.34226      105.70451       51.99088
H         13.49576      105.92931       52.44834
H         14.32317      106.23752       51.15727
O         16.36478      107.69801       52.93813
H         15.95678      108.06926       52.11638
H         17.21240      107.28638       52.63441

Ca 1.0



