%chk=holoCaM.loop4.water3.frame467.chk
%nprocshared=20
%mem=10GB
%nosave
#b3lyp/svp scf=(tight,noincore,xqc) Test 
#IOP(5/87=12) Density=Current Pop=(MK,readradii) iop(6/33=2) iop(6/42=6)

holoCaM.loop4.water3.frame467 

   -3  1 
C         24.90053       57.27014      101.41859
C         24.16348       56.06084      101.91101
O         24.21172       55.04337      101.23627
H         25.97958       57.02134      101.32159
H         24.50996       57.56857      100.42358
H         24.79925       58.12380      102.11967
N         23.46067       56.09155      103.08212
C         22.79165       54.91772      103.63825
C         21.97834       55.28649      104.87682
O         22.53096       55.84588      105.81470
C         23.83354       53.83537      103.99671
C         23.18137       52.61404      104.56240
O         23.52386       52.17942      105.78965
O         22.33685       52.01626      103.91536
H         23.41113       56.98345      103.59862
H         22.10120       54.50375      102.86919
H         24.56287       54.24005      104.73133
H         24.39505       53.51744      103.09602
N         20.65424       54.95789      104.94725
C         19.77436       55.27808      106.07173
C         19.29368       54.00708      106.79650
O         18.72804       54.13822      107.87108
C         18.55423       56.10150      105.51445
C         19.04575       57.38552      104.78973
C         17.50830       56.45426      106.59520
C         17.93891       58.13482      104.03788
H         20.23929       54.46109      104.14808
H         20.32996       55.88316      106.82190
H         18.04318       55.46177      104.75875
H         19.79774       57.11078      104.02043
H         19.53055       58.07069      105.51817
H         17.96177       57.07554      107.39518
H         16.64340       56.99233      106.16252
H         17.05606       55.54667      107.03737
H         18.37939       58.99911      103.49833
H         17.45825       57.46409      103.29322
H         17.16696       58.53723      104.72273
N         19.41984       52.75925      106.25016
C         18.75134       51.57439      106.80709
C         19.63128       50.31821      106.91437
O         19.15321       49.33755      107.47052
C         17.45429       51.28184      106.00771
C         17.63897       51.05806      104.52831
O         18.82428       51.28592      103.93872
O         16.69327       50.69093      103.85057
H         19.88309       52.67946      105.34429
H         18.41906       51.78915      107.84622
H         16.74524       52.12967      106.12794
H         16.97335       50.38097      106.44772
N         20.91198       50.26231      106.45254
C         21.80642       49.12218      106.65736
C         21.46518       47.82498      105.92569
O         22.20037       46.86595      106.11506
H         21.31015       51.09453      106.01014
H         21.86321       48.91471      107.74801
H         22.82485       49.41321      106.32049
N         20.39827       47.69675      105.08763
C         20.03842       46.44307      104.40173
C         21.02450       45.97488      103.31300
O         20.72994       44.96431      102.68961
C         18.60224       46.55895      103.81786
C         18.42584       47.68035      102.83484
O         19.48266       48.42167      102.47458
O         17.31353       47.96512      102.42317
H         19.77765       48.50990      104.97834
H         19.97883       45.63267      105.16195
H         17.91626       46.75910      104.66981
H         18.28696       45.60204      103.34867
N         22.20462       46.60712      103.03038
C         23.12011       46.14267      101.98534
C         22.62341       46.40502      100.56764
O         23.26596       45.95408       99.62855
H         22.49922       47.40998      103.59329
H         23.31043       45.05748      102.13454
H         24.09352       46.66951      102.08419
N         21.51181       47.15273      100.33745
C         20.93144       47.46768       99.03747
C         20.91312       48.97797       98.83144
O         21.33205       49.70531       99.72662
C         19.48909       46.91562       99.01313
C         19.46397       45.38360       99.13205
C         18.05686       44.87175       99.30258
N         17.71544       44.15414      100.40017
O         17.21779       45.10287       98.44491
H         21.03237       47.54214      101.14385
H         21.52382       47.01217       98.21282
H         18.96750       47.20598       98.07611
H         18.93272       47.36011       99.86833
H         20.06574       45.06290      100.00729
H         19.91748       44.93697       98.22120
H         18.40897       43.94184      101.13276
H         16.75406       43.80297      100.51981
N         20.46095       49.52626       97.66566
C         20.43337       50.96616       97.41335
C         19.01315       51.40769       97.08179
O         18.47956       51.00378       96.05550
C         21.43236       51.32493       96.27626
C         21.39921       52.82204       95.92753
C         22.86684       50.94284       96.67815
H         20.14713       48.89639       96.90899
H         20.76275       51.52071       98.32014
H         21.16156       50.75389       95.36010
H         20.39866       53.11345       95.55460
H         21.65315       53.44126       96.81375
H         22.12458       53.04472       95.11608
H         22.94572       49.85553       96.88544
H         23.57410       51.18149       95.85540
H         23.17882       51.50282       97.58667
N         18.34221       52.24785       97.92097
C         16.99915       52.77134       97.65971
C         17.06813       53.80940       96.53436
O         18.16186       54.15886       96.12475
C         16.49018       53.46143       98.96053
C         15.01230       53.74768       99.09227
N         14.56824       54.44405      100.16408
O         14.20661       53.32795       98.27800
H         18.80539       52.50983       98.80193
H         16.34014       51.91028       97.41221
H         17.05369       54.40739       99.08209
H         16.72701       52.82114       99.83419
H         15.22935       54.79261      100.87436
H         13.56344       54.63927      100.28448
N         15.95162       54.38233       96.01040
C         15.98976       55.52751       95.10330
C         16.51131       56.76753       95.83331
O         17.40572       57.41880       95.31122
C         14.62308       55.72379       94.40254
C         13.42691       55.93948       95.29739
C         12.56772       54.86503       95.59156
C         13.12803       57.21139       95.80584
C         11.44685       55.05388       96.40201
C         11.99189       57.40136       96.60159
C         11.15388       56.32145       96.90969
O         10.06561       56.49074       97.68697
H         15.03966       54.00556       96.27321
H         16.68132       55.30145       94.25885
H         14.45093       54.78944       93.82255
H         14.67245       56.53619       93.64466
H         12.77183       53.87505       95.20255
H         13.76524       58.05561       95.57428
H         10.80363       54.21377       96.63099
H         11.76269       58.38688       96.98326
H          9.82920       57.35184       98.06009
N         16.05782       57.10581       97.08187
C         16.57121       58.24432       97.86343
C         18.05380       58.13335       98.23624
O         18.56336       59.07069       98.83589
C         15.78242       58.40533       99.19176
C         14.30836       58.78185       99.00749
C         14.15944       60.12951       98.35432
O         13.57335       60.24085       97.29040
O         14.67204       61.22543       98.94652
H         15.31845       56.51885       97.49591
H         16.45190       59.16976       97.25874
H         16.24063       59.20624       99.81410
H         15.85152       57.45606       99.76842
H         13.82183       58.82829      100.00508
H         13.79692       57.99612       98.42507
N         18.81218       57.04920       97.92067
C         20.21984       56.90582       98.26867
C         21.05316       57.04637       97.00928
O         21.95853       57.86917       96.99290
C         20.43927       55.55099       98.97138
C         19.65112       55.47716      100.29526
C         19.74561       54.13954      100.97645
O         19.02522       53.91696      102.09016
O         20.44063       53.24405      100.52604
H         18.38857       56.27201       97.40794
H         20.55301       57.70314       98.97128
H         21.52125       55.40959       99.18745
H         20.10473       54.73379       98.29489
H         18.57974       55.66968      100.09522
H         20.01346       56.26120      100.99461
N         20.77018       56.32615       95.89010
C         21.49820       56.49757       94.65310
H         22.55967       56.20865       94.79394
H         21.05069       55.85891       93.86138
H         21.43727       57.55696       94.32140
H         19.98884       55.66356       95.89468
Ca        19.33547       50.55316      101.91380
O         17.00826       50.27185      100.05536
H         17.60625       49.49480      100.18681
H         16.88726       50.65518      100.96083
O         22.96736       49.62038      102.54944
H         23.85676       49.52528      102.12654
H         23.15784       49.62691      103.52119
O         23.03989       51.94337      100.91304
H         23.62173       51.49383      100.25092
H         22.99395       52.88119      100.60503

Ca 1.0



