%chk=holoCaM.loop4.water3.frame251.chk
%nprocshared=20
%mem=10GB
%nosave
#b3lyp/svp scf=(tight,noincore,xqc) Test 
#IOP(5/87=12) Density=Current Pop=(MK,readradii) iop(6/33=2) iop(6/42=6)

holoCaM.loop4.water3.frame251 

   -3  1 
C         41.34226      -17.51698       82.38934
C         40.77321      -16.13131       82.38709
O         40.89203      -15.44635       81.38456
H         42.11054      -17.60691       83.18314
H         40.52784      -18.24902       82.57730
H         41.80427      -17.75265       81.40605
N         40.09101      -15.67139       83.47238
C         39.41727      -14.37927       83.50976
C         39.79134      -13.63561       84.78813
O         39.63509      -14.20360       85.86040
C         37.90254      -14.64254       83.43731
C         37.08911      -13.40587       83.19037
O         35.87555      -13.49395       83.10830
O         37.68102      -12.21461       82.99432
H         39.97151      -16.30620       84.27726
H         39.68886      -13.77648       82.61384
H         37.56280      -15.14648       84.36767
H         37.70142      -15.32155       82.57946
N         40.27941      -12.36025       84.75120
C         40.72914      -11.62393       85.93771
C         39.82879      -10.40880       86.21569
O         39.94299       -9.82108       87.28107
C         42.21766      -11.15893       85.74226
C         43.09695      -12.24988       85.07280
C         42.85382      -10.72139       87.07960
C         44.45958      -11.72819       84.60033
H         40.35827      -11.90371       83.83820
H         40.66494      -12.30041       86.81677
H         42.19817      -10.29828       85.03477
H         42.59891      -12.59595       84.15318
H         43.22054      -13.12800       85.74066
H         42.29783       -9.89982       87.56449
H         42.89256      -11.58513       87.77899
H         43.88400      -10.34238       86.93576
H         45.10542      -11.42069       85.44470
H         44.98706      -12.52975       84.04326
H         44.32227      -10.86612       83.91024
N         38.94927       -9.94269       85.28181
C         38.13771       -8.74014       85.43436
C         36.65680       -9.07856       85.22387
O         35.88337       -8.81724       86.13484
C         38.74499       -7.60280       84.56637
C         39.17771       -8.02774       83.19521
O         38.26706       -8.33958       82.27925
O         40.36331       -8.09425       82.90989
H         38.89092      -10.40829       84.36997
H         38.20837       -8.33619       86.46987
H         39.67741       -7.28500       85.08412
H         38.07627       -6.71591       84.52362
N         36.19311       -9.71885       84.10732
C         34.80785      -10.16998       83.94422
C         34.11625       -9.61641       82.70669
O         32.97254       -9.97528       82.46661
H         36.85417       -9.96020       83.36124
H         34.18882       -9.90526       84.82769
H         34.81514      -11.27550       83.86636
N         34.73263       -8.71982       81.89400
C         34.11250       -8.06559       80.73896
C         33.65858       -8.97675       79.59600
O         32.81179       -8.52431       78.83791
C         35.07672       -6.98198       80.19240
C         36.45453       -7.51635       79.88270
O         36.71247       -8.83340       79.97271
O         37.36689       -6.74336       79.64530
H         35.67661       -8.41799       82.16188
H         33.19950       -7.54615       81.10615
H         35.20976       -6.23204       81.00169
H         34.65354       -6.46281       79.30643
N         34.21572      -10.19554       79.33228
C         33.83641      -11.00149       78.16844
C         34.91281      -11.04510       77.08917
O         34.67191      -11.65799       76.05821
H         34.96428      -10.54543       79.94223
H         32.93041      -10.58588       77.67804
H         33.58232      -12.02932       78.50407
N         36.10356      -10.39932       77.23668
C         37.15594      -10.31109       76.23400
C         38.42459      -10.96649       76.76055
O         38.43293      -11.42588       77.89616
C         37.47257       -8.82116       75.95267
C         36.24232       -7.95472       75.64813
C         36.64369       -6.52340       75.37235
N         37.30822       -5.78892       76.29790
O         36.36027       -6.01888       74.29680
H         36.28756       -9.91666       78.10675
H         36.83864      -10.81460       75.29441
H         38.19423       -8.74802       75.11053
H         37.95245       -8.39826       76.85690
H         35.55306       -7.95988       76.52089
H         35.70441       -8.37068       74.76979
H         37.56172       -6.18579       77.21151
H         37.57875       -4.81410       76.10001
N         39.54891      -11.02686       75.99223
C         40.81198      -11.58820       76.46014
C         41.90899      -10.53366       76.31739
O         42.12435      -10.07100       75.20440
C         41.15125      -12.87735       75.65460
C         42.42259      -13.55057       76.19458
C         40.00143      -13.89849       75.71747
H         39.50906      -10.67068       75.02418
H         40.73184      -11.89412       77.52107
H         41.31356      -12.61161       74.58703
H         42.66706      -14.45787       75.60260
H         43.28774      -12.86395       76.13162
H         42.27605      -13.86024       77.25078
H         39.79812      -14.19924       76.76700
H         39.07294      -13.47834       75.27846
H         40.26319      -14.80820       75.13513
N         42.68309      -10.15127       77.38114
C         43.84669       -9.26625       77.24710
C         45.11070      -10.10761       77.29024
O         44.99455      -11.31910       77.28564
C         43.86923       -8.09903       78.27482
C         44.25116       -8.46372       79.69277
N         43.40738       -9.13367       80.50117
O         45.33505       -8.10409       80.12936
H         42.52205      -10.60659       78.28849
H         43.83137       -8.77510       76.25007
H         42.91780       -7.53079       78.26170
H         44.64252       -7.38521       77.91929
H         42.47175       -9.39195       80.17228
H         43.68019       -9.35521       81.47119
N         46.35476       -9.55834       77.29332
C         47.57089      -10.36893       77.27347
C         47.67326      -11.29137       78.49098
O         47.84815      -12.48787       78.30796
C         48.81082       -9.45918       77.18644
C         50.06467      -10.25888       76.93065
C         50.21180      -10.97448       75.72800
C         51.09686      -10.29383       77.87997
C         51.37071      -11.71326       75.48179
C         52.25538      -11.03693       77.63251
C         52.39588      -11.74852       76.43119
O         53.50862      -12.46594       76.17817
H         46.44390       -8.53155       77.27856
H         47.54159      -10.98974       76.35040
H         48.89101       -8.86631       78.12393
H         48.69476       -8.74160       76.34472
H         49.43230      -10.95683       74.97612
H         51.00329       -9.75138       78.81237
H         51.47138      -12.25721       74.55061
H         53.04275      -11.05817       78.37457
H         54.24260      -12.51506       76.80672
N         47.55913      -10.79910       79.76187
C         47.66150      -11.61433       80.98536
C         46.59382      -12.70827       81.11435
O         46.65939      -13.46753       82.07151
C         47.59621      -10.70266       82.23372
C         48.83427       -9.79941       82.34707
C         48.71446       -8.86905       83.51948
O         48.56544       -9.35951       84.76508
O         48.75769       -7.66112       83.34864
H         47.40501       -9.78503       79.85789
H         48.64544      -12.13381       80.98403
H         47.55935      -11.32245       83.15748
H         46.66452      -10.09446       82.18997
H         48.96950       -9.20019       81.42243
H         49.73656      -10.43529       82.48293
N         45.62189      -12.88706       80.18251
C         44.63837      -13.96034       80.19571
C         45.02363      -14.96703       79.12683
O         45.19727      -16.13363       79.45124
C         43.23905      -13.35464       79.96992
C         42.83876      -12.48195       81.16950
C         41.56911      -11.70169       80.97765
O         41.17414      -10.84399       81.93322
O         40.92762      -11.77176       79.94603
H         45.57995      -12.25248       79.38571
H         44.63307      -14.50636       81.16670
H         42.48313      -14.15605       79.83680
H         43.26147      -12.73886       79.04696
H         43.64141      -11.74524       81.37252
H         42.72798      -13.14260       82.05011
N         45.24475      -14.58007       77.84224
C         45.71659      -15.48600       76.82075
H         46.68973      -15.92550       77.12946
H         44.97390      -16.29099       76.64999
H         45.87403      -14.92934       75.87127
H         45.11711      -13.60133       77.58097
Ca        38.73080       -9.57559       80.48950
O         36.38689      -12.61017       79.95767
H         36.20598      -13.01075       79.07071
H         35.58837      -12.83424       80.49691
O         38.88001      -13.83424       79.76198
H         38.53519      -13.99763       78.84969
H         39.85542      -13.95585       79.67068
O         40.51060       -8.33314       78.62092
H         40.65954       -7.78590       79.43257
H         39.54669       -8.23158       78.43280

Ca 1.0



