%chk=holoCaM-CaMKII.loop4.water1.frame405.chk
%nprocshared=20
%mem=10GB
%nosave
#b3lyp/svp scf=(tight,noincore,xqc) Test 
#IOP(5/87=12) Density=Current Pop=(MK,readradii) iop(6/33=2) iop(6/42=6)

holoCaM-CaMKII.loop4.water1.frame405 

   -3  1 
C         37.57500       62.87725       68.17510
C         36.92620       63.73371       69.22550
O         37.47358       64.76868       69.57282
H         38.57616       62.55186       68.52705
H         36.97205       61.96775       67.96238
H         37.68264       63.45312       67.23332
N         35.74547       63.35189       69.77988
C         35.05067       64.09807       70.82428
C         35.91335       64.18960       72.08027
O         36.43160       63.17272       72.52008
C         33.70565       63.40349       71.10134
C         32.89989       64.10034       72.14612
O         32.49563       63.41161       73.22124
O         32.58773       65.27233       72.02082
H         35.31788       62.47604       69.43816
H         34.81591       65.12139       70.45256
H         33.87701       62.35106       71.41809
H         33.11000       63.39235       70.16198
N         36.09124       65.38874       72.71352
C         36.98018       65.58794       73.85906
C         36.15359       65.82101       75.12384
O         36.21597       65.00478       76.03230
C         37.95227       66.78635       73.57865
C         38.69777       66.68250       72.22409
C         38.93319       67.01855       74.73961
C         39.64647       65.49412       72.08955
H         35.56598       66.19929       72.36366
H         37.58518       64.66983       74.02529
H         37.35180       67.71349       73.49021
H         39.28227       67.61575       72.06269
H         37.95024       66.62897       71.40768
H         38.38209       67.22969       75.67973
H         39.57900       66.13264       74.90376
H         39.57378       67.90135       74.52487
H         40.45664       65.54780       72.84433
H         39.09735       64.53708       72.19330
H         40.11461       65.52073       71.08240
N         35.37306       66.93075       75.25501
C         34.56457       67.24882       76.43783
C         33.40371       66.27927       76.71066
O         32.74705       66.45560       77.72833
C         34.00570       68.69330       76.34357
C         33.16885       68.94071       75.11658
O         33.11694       68.01656       74.13873
O         32.57050       69.99587       74.99257
H         35.40767       67.61449       74.49179
H         35.23311       67.22084       77.32662
H         34.84300       69.42381       76.33562
H         33.39320       68.89778       77.24892
N         33.09609       65.23129       75.89635
C         32.05390       64.26454       76.21825
C         30.63871       64.79889       76.09061
O         29.88148       64.67408       77.04214
H         33.65618       65.05736       75.05139
H         32.23458       63.84406       77.23227
H         32.12886       63.40930       75.52546
N         30.19419       65.34480       74.91878
C         28.79109       65.70269       74.66198
C         28.23532       64.99825       73.42097
O         27.09757       65.26210       73.05767
C         28.62064       67.23301       74.56425
C         29.33582       67.90251       73.43052
O         29.37603       69.12187       73.39323
O         30.01638       67.19969       72.51265
H         30.88293       65.48873       74.16595
H         28.15560       65.39507       75.52067
H         29.01043       67.66378       75.51279
H         27.54268       67.49216       74.49161
N         28.96561       64.07322       72.73456
C         28.49272       63.38015       71.55004
C         28.39894       64.28603       70.34325
O         27.37067       64.28919       69.68388
H         29.89691       63.80036       73.07278
H         27.53206       62.85987       71.75728
H         29.24306       62.60183       71.28834
N         29.48650       65.01774       69.96330
C         29.61306       65.76476       68.70068
C         31.02007       66.33241       68.53798
O         31.79019       66.29416       69.48931
C         28.50952       66.84063       68.50037
C         28.39120       67.96709       69.54351
C         29.43811       69.04989       69.41670
N         29.08190       70.29483       69.02260
O         30.60662       68.82004       69.67751
H         30.30030       64.95363       70.59094
H         29.49080       65.01930       67.88382
H         27.53493       66.31684       68.50000
H         28.59732       67.29532       67.48966
H         28.35330       67.55691       70.57256
H         27.40561       68.44572       69.35617
H         28.10434       70.52651       68.79560
H         29.78922       71.03353       68.93118
N         31.45834       66.82396       67.33875
C         32.83782       67.27488       67.15819
C         32.87551       68.67501       66.55170
O         32.58537       68.81813       65.37157
C         33.62382       66.24324       66.29005
C         35.12251       66.57716       66.23956
C         33.46097       64.80766       66.82590
H         30.82974       66.79868       66.52098
H         33.34987       67.31287       68.14256
H         33.21681       66.25384       65.25452
H         35.65900       65.84318       65.60066
H         35.28843       67.58301       65.81053
H         35.56308       66.53834       67.25954
H         34.02049       64.09154       66.18633
H         33.83635       64.72658       67.86791
H         32.39542       64.49547       66.80320
N         33.23297       69.75970       67.30327
C         33.42627       71.09935       66.74232
C         34.68691       71.14821       65.89539
O         35.39809       70.16106       65.80158
C         33.54637       72.15981       67.86622
C         32.22073       72.43178       68.52410
N         32.05816       72.26226       69.85257
O         31.29034       72.84779       67.84891
H         33.37914       69.62841       68.31161
H         32.56073       71.36724       66.09675
H         33.86429       73.13895       67.45502
H         34.32294       71.84730       68.60000
H         32.84083       71.93351       70.42761
H         31.15578       72.47371       70.30445
N         35.02443       72.29692       65.24451
C         36.22497       72.43325       64.43208
C         37.48158       72.25607       65.27109
O         38.31172       71.42894       64.92155
C         36.25379       73.82041       63.75450
C         37.39953       73.92181       62.77817
C         37.41965       73.10482       61.63461
C         38.45485       74.82085       62.99901
C         38.47905       73.18197       60.72922
C         39.51784       74.89308       62.09292
C         39.53253       74.07258       60.95449
O         40.55041       74.13026       60.07282
H         34.38767       73.10514       65.31323
H         36.19016       71.65935       63.63387
H         36.32596       74.60673       64.53833
H         35.30865       73.99488       63.19581
H         36.61253       72.40897       61.44167
H         38.46129       75.45709       63.87538
H         38.48008       72.54650       59.85257
H         40.32957       75.58491       62.27753
H         41.30075       74.72933       60.19196
N         37.68225       73.00996       66.39288
C         38.88547       72.92679       67.21988
C         39.18414       71.50183       67.63957
O         40.32778       71.08063       67.53293
C         38.80775       73.86628       68.45365
C         37.70136       73.52819       69.47281
C         37.73574       74.47232       70.64098
O         37.56512       75.66936       70.47393
O         37.94639       73.99766       71.88432
H         36.94116       73.67122       66.66967
H         39.74963       73.28740       66.61734
H         38.66261       74.90792       68.09192
H         39.78758       73.82536       68.98087
H         37.85256       72.50412       69.86882
H         36.70052       73.58489       68.99588
N         38.18983       70.69247       68.09380
C         38.41617       69.32034       68.52864
C         38.99448       68.50447       67.38684
O         40.08191       67.96508       67.53721
C         37.11233       68.68893       69.06855
C         36.55647       69.48801       70.26502
C         35.36211       68.83658       70.88668
O         35.35342       68.59281       72.20521
O         34.37394       68.57730       70.22434
H         37.23434       71.07573       68.11436
H         39.14670       69.32595       69.36986
H         37.33659       67.65117       69.39368
H         36.34151       68.64553       68.26867
H         36.24256       70.49957       69.94204
H         37.34338       69.59960       71.04274
N         38.33691       68.41552       66.19803
C         38.85411       67.71716       65.03925
H         39.84038       67.24597       65.23216
H         38.13617       66.92937       64.73174
H         38.97223       68.43959       64.20324
H         37.43381       68.89125       66.09318
Ca        31.98075       68.15569       72.22764
O         33.48039       70.88072       72.54903
H         33.87684       71.77209       72.71451
H         32.50162       71.03090       72.58878

Ca 1.0



