%chk=holoCaM-CaMKII.loop3.water2.frame376.chk
%nprocshared=20
%mem=10GB
%nosave
#b3lyp/svp scf=(tight,noincore,xqc) Test 
#IOP(5/87=12) Density=Current Pop=(MK,readradii) iop(6/33=2) iop(6/42=6)

holoCaM-CaMKII.loop3.water2.frame376 

   0  1 
C         54.55806       73.49462       38.52732
C         54.16652       74.17935       37.25244
O         54.97289       74.20450       36.33299
H         55.45428       73.98870       38.95611
H         53.73763       73.52813       39.27403
H         54.79635       72.43088       38.31355
N         52.93199       74.74526       37.11851
C         52.47495       75.37164       35.88755
C         52.08373       76.81711       36.14672
O         51.25105       77.06561       37.00832
C         51.27100       74.59483       35.34159
C         51.02113       74.97238       33.91631
O         51.04567       74.02616       32.98363
O         50.87631       76.12954       33.57352
H         52.27274       74.69996       37.91073
H         53.27820       75.32363       35.11648
H         50.37093       74.76743       35.96974
H         51.49595       73.50486       35.35455
N         52.63744       77.82395       35.41876
C         52.32120       79.23221       35.63818
C         50.84895       79.54838       35.38164
O         50.22179       80.11827       36.26338
C         53.21502       80.15954       34.78240
C         54.71321       79.98594       35.12015
C         55.63280       80.99998       34.42007
C         55.44425       82.43364       34.94787
N         56.40857       83.34884       34.33923
H         53.32529       77.57236       34.69491
H         52.55081       79.48526       36.69848
H         52.90988       81.19958       35.01801
H         53.04901       79.98598       33.69691
H         55.03833       78.97113       34.81428
H         54.87155       80.07162       36.21722
H         55.47982       80.96295       33.31965
H         56.68185       80.69826       34.63343
H         55.59343       82.43741       36.05115
H         54.41899       82.79972       34.73252
H         57.38463       83.03857       34.55214
H         56.26565       83.38530       33.30413
H         56.26729       84.30603       34.73632
N         50.23420       79.22193       34.20535
C         48.86241       79.62361       33.87029
C         47.84362       78.48502       33.91728
O         46.68331       78.73952       33.62287
C         48.84148       80.35629       32.50663
C         49.21701       79.52402       31.30341
O         49.56505       78.22799       31.41541
O         49.19797       80.03947       30.19758
H         50.77214       78.68611       33.51406
H         48.49581       80.35971       34.61862
H         49.53265       81.22506       32.55974
H         47.81633       80.75129       32.33373
N         48.16824       77.23193       34.34276
C         47.19149       76.16673       34.51833
C         46.48847       75.68384       33.25983
O         45.56079       74.90176       33.41588
H         49.11988       77.04944       34.66708
H         46.41632       76.53948       35.22277
H         47.68085       75.28892       34.99413
N         46.82286       76.09104       31.99766
C         46.01889       75.72043       30.83033
C         45.96295       74.22119       30.53031
O         45.15968       73.85502       29.68276
C         46.45292       76.49384       29.55920
C         47.81433       76.12623       29.01299
N         48.24766       76.67920       27.85773
O         48.52309       75.32039       29.59265
H         47.60887       76.73992       31.87060
H         44.97886       76.04894       31.05602
H         46.42847       77.58603       29.76498
H         45.70782       76.28607       28.76012
H         47.66180       77.35421       27.34529
H         49.16629       76.42111       27.46717
N         46.76504       73.30090       31.14862
C         46.66243       71.86876       30.88465
C         47.92115       71.24360       30.31122
O         47.88440       70.04748       30.06098
H         47.45880       73.60984       31.84419
H         45.84217       71.65132       30.16757
H         46.41166       71.35409       31.83642
N         49.06696       71.95121       30.08358
C         50.28009       71.35011       29.52393
C         51.47508       72.31145       29.70612
O         51.29331       73.52498       29.04387
C         50.06465       70.89125       28.05460
C         49.56844       71.97809       27.12302
C         50.46574       72.84304       26.47243
C         48.19036       72.12003       26.88064
C         49.99257       73.84280       25.61639
C         47.71935       73.11816       26.02296
C         48.61596       73.98441       25.39062
O         48.14464       74.94357       24.56842
H         49.09292       72.94331       30.34839
H         50.53375       70.45709       30.13659
H         49.31257       70.07580       28.05494
H         50.98277       70.42255       27.63974
H         51.53288       72.74529       26.62813
H         47.47724       71.46147       27.36023
H         50.69654       74.50532       25.12858
H         46.65504       73.21792       25.85018
H         48.73033       75.56378       24.11127
N         52.78891       71.74175       29.39643
C         53.88629       72.40030       30.14776
C         55.01618       72.64658       29.17285
O         55.44240       71.71531       28.50150
C         54.36840       71.56977       31.39064
C         53.23606       71.47190       32.44738
C         55.62606       72.21648       32.02206
C         53.57500       70.60879       33.66692
H         52.81254       70.70599       29.54554
H         53.56373       73.39357       30.53512
H         54.64688       70.54740       31.05232
H         52.33271       71.02814       31.98222
H         52.98491       72.49110       32.80567
H         56.01683       71.61362       32.86502
H         56.45829       72.27082       31.29100
H         55.40296       73.24303       32.38409
H         52.69762       70.57646       34.34747
H         53.81871       69.57313       33.35089
H         54.41931       71.02758       34.25062
N         55.57399       73.88763       29.07441
C         56.63597       74.22916       28.13985
C         57.94779       74.47386       28.86583
O         57.99758       74.36656       30.08497
C         56.19933       75.45420       27.31630
O         56.01391       76.56163       28.15730
H         55.24470       74.62976       29.71136
H         56.81726       73.38703       27.43629
H         55.24527       75.20591       26.79870
H         56.96380       75.69872       26.54916
H         55.61928       77.27638       27.59318
N         59.07165       74.77140       28.16057
C         60.39200       74.95572       28.75438
C         60.41459       76.09094       29.75905
O         60.86175       75.88225       30.87627
C         61.42496       75.23347       27.65678
H         58.98890       74.84257       27.13302
H         60.69886       74.01393       29.26365
H         62.43729       75.34131       28.10134
H         61.44805       74.38663       26.93800
H         61.17432       76.16339       27.10224
N         59.93657       77.32172       29.42112
C         59.96304       78.47431       30.31824
C         59.32749       78.16234       31.65552
O         59.94634       78.42426       32.67928
C         59.23215       79.65848       29.67190
H         59.52234       77.43753       28.48397
H         61.01863       78.78203       30.48957
H         59.27265       80.54518       30.34091
H         59.71462       79.92600       28.70819
H         58.16666       79.40657       29.47914
N         58.09685       77.58808       31.72118
C         57.41616       77.30704       32.98080
C         58.25584       76.38218       33.84609
O         58.61863       76.76983       34.94794
C         56.01699       76.69793       32.73983
C         55.11489       77.62546       31.90397
C         53.74638       77.04762       31.73331
O         52.66817       77.75143       32.11632
O         53.60012       75.95388       31.21647
H         57.64007       77.34464       30.83044
H         57.27103       78.26823       33.52470
H         55.53531       76.52282       33.72784
H         56.11303       75.71994       32.21925
H         55.53322       77.77491       30.88956
H         55.03421       78.61789       32.39357
N         58.62487       75.15110       33.39883
C         59.45637       74.26140       34.17981
H         60.43494       74.74426       34.38977
H         58.95269       74.00895       35.13646
H         59.64122       73.32317       33.61401
H         58.32077       74.83816       32.46900
Ca        51.00954       74.70327       30.88436
O         51.38370       78.37298       28.73931
H         50.42260       78.23845       28.54769
H         51.79530       78.50102       27.84824
O         52.74166       75.70529       28.02614
H         53.29794       76.32230       28.56356
H         52.73850       76.09828       27.11787

Ca 1.0



