%chk=holoCaM.loop3.water3.frame207.chk
%nprocshared=20
%mem=10GB
%nosave
#b3lyp/svp scf=(tight,noincore,xqc) Test 
#IOP(5/87=12) Density=Current Pop=(MK,readradii) iop(6/33=2) iop(6/42=6)

holoCaM.loop3.water3.frame207 

   0  1 
C         16.54417       66.21746       59.52290
C         17.26456       64.92296       59.73901
O         16.95063       63.95413       59.06127
H         15.46203       66.07532       59.72355
H         16.93039       67.01142       60.19581
H         16.68432       66.54347       58.47134
N         18.25812       64.83025       60.66619
C         18.99377       63.59768       60.89181
C         18.04416       62.51390       61.39567
O         17.41314       62.69008       62.42858
C         20.14774       63.83633       61.88068
C         21.01772       62.62784       62.01593
O         20.78838       61.53203       61.27451
O         21.90665       62.61980       62.84150
H         18.51229       65.67025       61.20888
H         19.44856       63.29545       59.92169
H         19.72645       64.09680       62.87619
H         20.78536       64.67907       61.53863
N         17.86887       61.38175       60.66287
C         16.86497       60.36426       60.94996
C         17.05704       59.68725       62.30837
O         16.05450       59.49962       62.98363
C         16.78308       59.37557       59.76165
C         15.47511       58.56029       59.73014
C         15.27790       57.82325       58.39031
C         16.25572       56.66023       58.17519
N         16.05208       56.05130       56.85954
H         18.41827       61.28817       59.79790
H         15.88350       60.89014       60.96500
H         17.68388       58.73135       59.72609
H         16.76526       59.99501       58.83587
H         14.62962       59.27971       59.80896
H         15.41144       57.85723       60.58710
H         15.37060       58.55626       57.55708
H         14.24523       57.41176       58.36053
H         16.09146       55.89839       58.96833
H         17.30430       57.00878       58.24509
H         16.25685       56.74989       56.10742
H         16.70408       55.24145       56.75048
H         15.06801       55.71038       56.76247
N         18.29243       59.32719       62.79185
C         18.48492       58.72300       64.12081
C         19.28190       59.55678       65.13203
O         19.19957       59.22641       66.30792
C         18.97863       57.25420       64.07077
C         20.41863       56.86401       63.76333
O         20.72654       55.70357       63.98436
O         21.39406       57.67648       63.29995
H         19.09101       59.50642       62.19074
H         17.47913       58.65013       64.58836
H         18.30724       56.67143       63.40503
H         18.81341       56.87092       65.10313
N         20.05501       60.62981       64.79211
C         20.70127       61.49365       65.78163
C         22.21345       61.35827       65.86868
O         22.79653       62.08131       66.66544
H         20.16690       60.87192       63.80454
H         20.32077       61.28009       66.80471
H         20.42794       62.54664       65.55576
N         22.91635       60.42103       65.16724
C         24.34010       60.16217       65.41656
C         25.28770       61.28368       64.97607
O         26.47086       61.17972       65.26575
C         24.75818       58.80454       64.80153
C         24.87997       58.81194       63.29594
N         26.00382       58.36254       62.69415
O         23.95531       59.20480       62.60888
H         22.39670       59.78953       64.54427
H         24.44394       60.03386       66.51820
H         24.00484       58.04279       65.10059
H         25.73007       58.48803       65.23781
H         26.79913       58.01069       63.24572
H         26.07354       58.35238       61.66578
N         24.85375       62.36126       64.25833
C         25.70909       63.45288       63.80746
C         25.81750       63.54466       62.28956
O         26.49317       64.45005       61.82026
H         23.86707       62.42334       64.01067
H         26.74111       63.34154       64.20396
H         25.29665       64.40380       64.20697
N         25.25229       62.61714       61.46313
C         25.47666       62.55062       60.01756
C         24.17172       62.41535       59.25824
O         23.37022       61.56359       59.62224
C         26.32280       61.29647       59.74190
C         27.74112       61.47972       60.21747
C         28.21477       60.81610       61.35793
C         28.61167       62.31711       59.50078
C         29.53759       60.98052       61.77459
C         29.93847       62.47186       59.90980
C         30.40643       61.80155       61.04921
O         31.68517       61.93615       61.45314
H         24.71895       61.84010       61.88066
H         26.02913       63.43474       59.62886
H         26.36150       61.06178       58.65502
H         25.83929       60.43160       60.24695
H         27.56243       60.18237       61.93180
H         28.26624       62.83457       58.61395
H         29.88751       60.46442       62.65965
H         30.60126       63.10848       59.33788
H         32.32135       62.48219       60.96986
N         23.93611       63.15210       58.12635
C         22.74312       62.96895       57.30184
C         23.16857       62.43171       55.93707
O         23.77927       63.17028       55.17467
C         21.94553       64.30241       57.12568
C         21.85042       65.11312       58.44175
C         20.54836       63.99298       56.54766
C         21.18998       66.48435       58.26091
H         24.64794       63.82898       57.80907
H         22.07609       62.22859       57.79524
H         22.50167       64.95121       56.41245
H         22.87912       65.31866       58.80845
H         21.31634       64.53441       59.21751
H         19.98292       64.91787       56.32067
H         20.62967       63.42657       55.59855
H         19.96024       63.38730       57.27185
H         20.12119       66.39058       57.98411
H         21.24268       67.05089       59.21393
H         21.72293       67.06827       57.47850
N         22.91703       61.14174       55.57238
C         23.28555       60.60582       54.25897
C         22.33978       61.12652       53.18624
O         21.39881       61.82555       53.52093
C         23.26544       59.06620       54.28162
O         21.97817       58.59260       54.56041
H         22.48477       60.51711       56.26494
H         24.33058       60.90890       54.02657
H         23.96960       58.71013       55.06606
H         23.60376       58.67689       53.29521
H         22.01509       57.60694       54.45253
N         22.51894       60.82438       51.86786
C         21.57118       61.25259       50.83965
C         20.22693       60.54542       50.98525
O         19.21432       61.12684       50.62125
C         22.13612       61.01656       49.43653
H         23.35321       60.28544       51.58906
H         21.42018       62.35187       50.93334
H         21.42607       61.39500       48.66905
H         23.09148       61.57362       49.32224
H         22.32391       59.93740       49.25766
N         20.14616       59.27568       51.48230
C         18.88324       58.56483       51.68197
C         18.05230       59.26010       52.74292
O         16.89777       59.58154       52.50114
C         19.15200       57.12010       52.12600
H         21.02125       58.79405       51.74020
H         18.32459       58.50902       50.72102
H         19.74874       56.59330       51.35162
H         19.71022       57.08666       53.08592
H         18.19111       56.57615       52.25432
N         18.62211       59.54618       53.94555
C         17.96505       60.23854       55.05087
C         17.37725       61.55374       54.57279
O         16.19362       61.78023       54.78236
C         18.99009       60.46862       56.19138
C         19.41121       59.13679       56.84409
C         20.51706       59.31572       57.84327
O         20.36829       60.14828       58.88519
O         21.55757       58.68937       57.72232
H         19.61272       59.29246       54.05484
H         17.13117       59.61842       55.45238
H         18.54445       61.11191       56.98219
H         19.87929       60.99299       55.77769
H         19.75399       58.40656       56.08320
H         18.52977       58.70411       57.35280
N         18.13484       62.44050       53.87356
C         17.63165       63.68562       53.33372
H         16.56761       63.86205       53.59479
H         18.23953       64.52696       53.72522
H         17.72135       63.66298       52.22646
H         19.11107       62.20737       53.67575
Ca        21.36858       59.50668       62.00263
O         24.28837       58.55832       59.08210
H         25.07396       57.98729       59.27462
H         24.44641       58.89735       58.16537
O         19.93905       57.07306       60.34627
H         20.46967       56.38364       60.81815
H         18.99831       56.83094       60.53630
O         23.27246       56.41369       60.98212
H         23.34627       56.69753       61.92632
H         24.06178       55.83373       60.84171

Ca 1.0



