%chk=holoCaM.loop3.water1.frame100.chk
%nprocshared=20
%mem=10GB
%nosave
#b3lyp/svp scf=(tight,noincore,xqc) Test 
#IOP(5/87=12) Density=Current Pop=(MK,readradii) iop(6/33=2) iop(6/42=6)

holoCaM.loop3.water1.frame100 

   0  1 
C         96.49729       -0.42380       40.01180
C         95.55867       -1.50479       39.57357
O         95.05088       -2.23075       40.41699
H         97.49046       -0.58396       39.54102
H         96.09787        0.56376       39.70268
H         96.62167       -0.43593       41.11577
N         95.30679       -1.68695       38.24713
C         94.45288       -2.74861       37.73867
C         95.33948       -3.72781       37.00347
O         95.94871       -3.35527       36.00921
C         93.35002       -2.15030       36.84311
C         92.33851       -3.16282       36.38107
O         92.43127       -4.45294       36.74560
O         91.40082       -2.80580       35.69007
H         95.78160       -1.07409       37.56535
H         93.95764       -3.27377       38.58471
H         93.80890       -1.65812       35.95770
H         92.80642       -1.37476       37.42305
N         95.53034       -4.98215       37.50252
C         96.53028       -5.88956       36.95127
C         96.04409       -6.59686       35.69455
O         96.85564       -7.24269       35.04586
C         97.01181       -6.89122       38.02596
C         97.51576       -6.21900       39.32829
C         98.68132       -5.23805       39.11398
C         99.13242       -4.61664       40.44370
N        100.22874       -3.67065       40.23450
H         95.04463       -5.24086       38.37413
H         97.41590       -5.28759       36.65508
H         97.83196       -7.51150       37.60303
H         96.17112       -7.56786       38.29475
H         97.84222       -7.02189       40.02416
H         96.68244       -5.67616       39.82203
H         98.36260       -4.40851       38.44892
H         99.53394       -5.77432       38.64423
H         99.46627       -5.41946       41.13751
H         98.27600       -4.08064       40.91199
H         99.91864       -2.89248       39.60768
H        100.51380       -3.26670       41.15588
H        101.05017       -4.15946       39.81015
N         94.74738       -6.50568       35.27684
C         94.25059       -7.06113       34.02303
C         93.75756       -5.95516       33.07964
O         93.38129       -6.27467       31.96086
C         93.19331       -8.14881       34.31102
C         92.01939       -7.66289       35.11070
O         91.28305       -6.80299       34.66385
O         91.76332       -8.19367       36.32193
H         94.07012       -6.00424       35.86183
H         95.07475       -7.57032       33.47683
H         93.68845       -8.96210       34.88620
H         92.82905       -8.58610       33.35650
N         93.80549       -4.63089       33.42779
C         93.54955       -3.53035       32.50759
C         92.12212       -3.35178       32.02697
O         91.91159       -2.43522       31.24436
H         94.14673       -4.35873       34.35712
H         94.21744       -3.64753       31.62711
H         93.83041       -2.58101       33.01521
N         91.08984       -4.15040       32.42055
C         89.72947       -3.98843       31.90056
C         89.00893       -2.71747       32.38663
O         87.88123       -2.50353       31.96505
C         88.90385       -5.27500       32.14081
C         88.63180       -5.64382       33.57590
N         87.98995       -6.80325       33.85042
O         88.99273       -4.91984       34.49015
H         91.28777       -4.93658       33.04975
H         89.80336       -3.92026       30.79151
H         89.46421       -6.11782       31.67725
H         87.92975       -5.19111       31.61228
H         87.69118       -7.43018       33.08802
H         87.80286       -7.08540       34.82287
N         89.59898       -1.80927       33.22223
C         89.00720       -0.51939       33.56677
C         88.14139       -0.52730       34.81468
O         87.71230        0.54725       35.21580
H         90.56803       -1.95622       33.52297
H         88.45626       -0.09711       32.69770
H         89.84419        0.18218       33.77370
N         87.83434       -1.67264       35.48097
C         87.02414       -1.73352       36.69668
C         87.76199       -2.53627       37.75279
O         88.13268       -3.66333       37.45214
C         85.71234       -2.47864       36.38938
C         84.80936       -1.75560       35.42198
C         84.63447       -2.25389       34.12161
C         84.09772       -0.60959       35.82009
C         83.76030       -1.62323       33.23363
C         83.20907        0.01123       34.93349
C         83.03637       -0.49720       33.63695
O         82.17437        0.07906       32.77474
H         88.16509       -2.56803       35.09490
H         86.77349       -0.72103       37.08801
H         85.13442       -2.65559       37.32403
H         85.97815       -3.47722       35.97764
H         85.17569       -3.13262       33.79441
H         84.20691       -0.21448       36.82288
H         83.63648       -2.02007       32.23425
H         82.64785        0.87953       35.25691
H         81.63175        0.84209       33.01924
N         87.96607       -2.06934       39.01870
C         88.55415       -2.89950       40.07181
C         87.55092       -3.12601       41.19338
O         87.11303       -2.17182       41.82289
C         89.91314       -2.33997       40.59552
C         89.83111       -0.90494       41.18020
C         90.96260       -2.43413       39.47592
C         91.13235       -0.45347       41.84973
H         87.64837       -1.11678       39.25926
H         88.79576       -3.90962       39.67364
H         90.24655       -3.01758       41.41003
H         89.06373       -0.86363       41.97492
H         89.55439       -0.17910       40.38653
H         90.69473       -1.76452       38.63262
H         91.97463       -2.17614       39.84400
H         91.02641       -3.47599       39.09823
H         91.96745       -0.38155       41.12559
H         90.98778        0.55310       42.29491
H         91.40836       -1.16004       42.66174
N         87.15014       -4.39178       41.51086
C         86.28932       -4.69190       42.65491
C         87.00076       -4.34848       43.95979
O         88.14497       -3.93341       43.92190
C         85.90002       -6.18532       42.65031
O         87.02967       -7.00505       42.81087
H         87.48862       -5.17416       40.93030
H         85.35393       -4.09696       42.56730
H         85.35705       -6.43138       41.70736
H         85.19084       -6.40950       43.47396
H         87.27222       -7.35521       41.91502
N         86.38667       -4.51740       45.16368
C         87.06738       -4.28041       46.43635
C         88.25060       -5.21835       46.59951
O         89.33505       -4.75518       46.92560
C         86.10079       -4.47880       47.60570
H         85.40820       -4.84115       45.17587
H         87.41670       -3.22410       46.48587
H         86.62415       -4.27008       48.56448
H         85.25222       -3.76815       47.51369
H         85.70615       -5.51615       47.62795
N         88.11274       -6.55209       46.34668
C         89.19436       -7.52768       46.46693
C         90.43294       -7.08241       45.71387
O         91.50151       -7.03822       46.30700
C         88.72853       -8.89298       45.94092
H         87.19161       -6.88398       46.01885
H         89.46021       -7.64889       47.54070
H         89.53787       -9.64634       46.04921
H         87.84559       -9.24368       46.51663
H         88.44549       -8.82704       44.86763
N         90.35041       -6.69768       44.41158
C         91.49671       -6.22003       43.64133
C         92.12856       -5.01544       44.32246
O         93.29714       -5.08435       44.67830
C         91.06205       -5.87452       42.19992
C         90.62773       -7.13294       41.43081
C         90.11837       -6.79381       40.06337
O         88.97681       -7.08840       39.74843
O         90.91162       -6.18405       39.16617
H         89.42122       -6.72072       43.96715
H         92.26403       -7.02506       43.58515
H         91.91041       -5.40556       41.65354
H         90.21999       -5.15091       42.23773
H         89.82227       -7.66364       41.97916
H         91.49156       -7.82457       41.33408
N         91.40981       -3.88794       44.56462
C         91.96035       -2.74476       45.25787
H         92.82133       -2.33274       44.69182
H         91.18458       -1.95493       45.35664
H         92.28860       -3.04276       46.27673
H         90.43345       -3.84231       44.26406
Ca        90.01422       -5.78061       37.13953
O         86.72584       -6.16172       37.12938
H         87.45642       -6.71696       37.50016
H         86.42889       -5.60311       37.89083

Ca 1.0



