%chk=holoCaM-CaMKII.loop4.water2.frame76.chk
%nprocshared=20
%mem=10GB
%nosave
#b3lyp/svp scf=(tight,noincore,xqc) Test 
#IOP(5/87=12) Density=Current Pop=(MK,readradii) iop(6/33=2) iop(6/42=6)

holoCaM-CaMKII.loop4.water2.frame76 

   -3  1 
C         -1.37382       55.50898       79.18196
C          0.05384       55.06555       79.18534
O          0.93265       55.89802       79.35439
H         -1.92080       54.99773       80.00104
H         -1.44030       56.60757       79.33642
H         -1.83743       55.25358       78.20707
N          0.36313       53.74891       79.01982
C          1.73724       53.27068       79.04131
C          2.49143       53.85116       77.85162
O          2.18376       53.52172       76.71446
C          1.76345       51.73303       79.04012
C          3.12558       51.15336       79.27285
O          4.19758       51.93596       79.50710
O          3.25120       49.94340       79.28681
H         -0.40857       53.07220       78.91200
H          2.18650       53.60959       80.00339
H          1.35547       51.35417       78.07761
H          1.11429       51.36249       79.86388
N          3.43832       54.80118       78.06065
C          4.11121       55.53270       76.99182
C          5.19522       54.67431       76.34956
O          5.28116       54.64057       75.13032
C          4.69688       56.88768       77.52805
C          3.56759       57.74285       78.18392
C          5.36386       57.67542       76.38039
C          4.01969       59.09105       78.74922
H          3.60664       55.08290       79.03333
H          3.36329       55.83326       76.22250
H          5.47518       56.67799       78.29127
H          3.13502       57.19325       79.04056
H          2.75380       57.92586       77.44882
H          6.18369       57.08990       75.91741
H          4.61738       57.93144       75.59793
H          5.82948       58.60994       76.75225
H          4.35941       59.77554       77.94706
H          3.15990       59.57873       79.25755
H          4.83353       58.95289       79.48845
N          6.08206       53.98832       77.12515
C          7.28747       53.32397       76.61926
C          7.21417       51.79006       76.66382
O          8.18801       51.15103       76.29059
C          8.50285       53.92453       77.37170
C          8.45057       53.70551       78.85959
O          9.16883       54.34994       79.60583
O          7.67250       52.73093       79.35388
H          5.91730       53.98413       78.14122
H          7.43421       53.56991       75.54463
H          8.46879       55.02214       77.19444
H          9.47032       53.54946       76.97437
N          6.06095       51.13607       76.98872
C          5.85562       49.70363       76.80212
C          6.57513       48.78253       77.76978
O          7.29853       47.90723       77.31613
H          5.23085       51.68834       77.23878
H          6.11124       49.43667       75.75209
H          4.77256       49.49067       76.92996
N          6.34150       48.85868       79.11163
C          6.79311       47.85530       80.08453
C          5.62267       47.29001       80.89316
O          5.84437       46.71754       81.95164
C          7.91095       48.40770       80.98582
C          7.59095       49.62845       81.79317
O          6.39719       50.24379       81.74018
O          8.49645       50.16079       82.41451
H          5.76386       49.63803       79.45208
H          7.26589       46.99016       79.56836
H          8.76088       48.67533       80.31941
H          8.26550       47.61083       81.67441
N          4.35157       47.33981       80.40628
C          3.18874       46.77417       81.07243
C          2.66509       47.55329       82.26999
O          1.59939       47.17715       82.73883
H          4.19878       47.71808       79.46231
H          3.37775       45.71196       81.34134
H          2.35687       46.78180       80.33401
N          3.30414       48.62900       82.82287
C          2.71903       49.42360       83.90778
C          2.68575       50.90589       83.58160
O          3.24273       51.34095       82.58201
C          3.48075       49.20311       85.23797
C          3.01833       47.91718       85.93756
C          3.63483       47.78209       87.30656
N          4.96156       47.56990       87.45352
O          2.92244       47.85894       88.29738
H          4.23136       48.90479       82.47217
H          1.65197       49.15079       84.06258
H          3.23408       50.02001       85.94995
H          4.58030       49.23567       85.07126
H          3.23740       47.01722       85.32724
H          1.91436       47.99028       86.06908
H          5.57439       47.48294       86.63075
H          5.37209       47.47464       88.39458
N          2.01067       51.73953       84.42927
C          1.93343       53.18595       84.29638
C          2.53716       53.79838       85.55481
O          2.02677       53.57632       86.64500
C          0.46027       53.62647       84.08547
C          0.33178       55.15649       84.00604
C         -0.11049       53.00697       82.79832
H          1.51855       51.32190       85.23517
H          2.51390       53.51962       83.40932
H         -0.15056       53.27187       84.94573
H          0.69387       55.63360       84.94061
H          0.91365       55.55480       83.14879
H         -0.73341       55.44341       83.87632
H         -1.17066       53.30879       82.66145
H          0.47073       53.34434       81.91384
H         -0.07702       51.89814       82.84175
N          3.67071       54.54222       85.46501
C          4.40460       55.07920       86.60798
C          3.77123       56.37573       87.11201
O          2.82706       56.86573       86.50962
C          5.87796       55.27200       86.14185
C          6.86357       55.78696       87.15871
N          7.09419       55.12206       88.31415
O          7.47891       56.81601       86.92410
H          4.08877       54.64915       84.53324
H          4.40277       54.32557       87.42606
H          5.88656       55.95785       85.26670
H          6.25393       54.28352       85.79941
H          6.59000       54.25206       88.53507
H          7.77279       55.49107       88.99723
N          4.27987       56.99900       88.21451
C          3.86065       58.30904       88.70665
C          4.00101       59.34665       87.60878
O          3.05744       60.08151       87.35688
C          4.76224       58.71547       89.89858
C          4.43925       60.09519       90.41816
C          3.20636       60.35663       91.03615
C          5.37261       61.13663       90.27607
C          2.91195       61.64094       91.50462
C          5.07316       62.42045       90.73728
C          3.84067       62.67701       91.35433
O          3.53863       63.91171       91.80339
H          5.04340       56.53386       88.71900
H          2.80210       58.26813       89.04687
H          5.82108       58.68806       89.55628
H          4.66821       57.97994       90.72669
H          2.47647       59.56627       91.15816
H          6.32789       60.95969       89.79656
H          1.95946       61.83136       91.98247
H          5.79901       63.21414       90.61204
H          4.15127       64.65556       91.71222
N          5.16689       59.45046       86.91490
C          5.38014       60.39587       85.82759
C          4.37830       60.16265       84.71185
O          3.71149       61.10762       84.31281
C          6.81337       60.27510       85.25942
C          7.88949       60.63269       86.29949
C          9.26141       60.59394       85.69080
O         10.01892       61.70735       85.66700
O          9.70123       59.55476       85.22476
H          5.92718       58.80370       87.16221
H          5.26078       61.43514       86.20947
H          6.91104       60.98681       84.40891
H          6.98827       59.24558       84.87403
H          7.86707       59.92619       87.15485
H          7.69593       61.65630       86.68709
N          4.22215       58.92439       84.15759
C          3.32778       58.67158       83.02568
C          1.85975       58.94008       83.35762
O          1.05333       58.96948       82.43791
C          3.47525       57.22303       82.49240
C          4.92330       56.88227       82.09033
C          5.05335       55.50078       81.51569
O          5.56945       55.34330       80.42399
O          4.66357       54.42271       82.21664
H          4.78579       58.15503       84.54391
H          3.62819       59.36885       82.21133
H          2.81846       57.10232       81.60201
H          3.13706       56.51094       83.27527
H          5.58651       56.92628       82.97308
H          5.28812       57.62207       81.34862
N          1.43120       59.13549       84.63641
C          0.05484       59.43188       84.96629
H         -0.60963       58.61574       84.61436
H         -0.05420       59.52954       86.06875
H         -0.24635       60.39338       84.49893
H          2.09215       59.06354       85.41404
Ca         6.87423       52.38508       81.40989
O          8.06589       54.70511       82.96188
H          8.07343       54.70627       81.97264
H          7.67115       55.57972       83.20194
O          6.63294       51.93021       84.46527
H          6.49781       50.95409       84.37195
H          7.61521       52.05022       84.42499

Ca 1.0



