%chk=holoCaM-CaMKII.loop3.water2.frame277.chk
%nprocshared=20
%mem=10GB
%nosave
#b3lyp/svp scf=(tight,noincore,xqc) Test 
#IOP(5/87=12) Density=Current Pop=(MK,readradii) iop(6/33=2) iop(6/42=6)

holoCaM-CaMKII.loop3.water2.frame277 

   0  1 
C         52.07564       15.90638       83.72945
C         52.62784       14.65859       84.35986
O         53.65282       14.16742       83.90976
H         51.14476       16.24018       84.23662
H         52.82257       16.72438       83.80337
H         51.84296       15.71739       82.66129
N         52.00167       14.09884       85.43011
C         52.49053       12.91051       86.11835
C         52.43717       11.68931       85.20719
O         51.41221       11.43386       84.59116
C         51.66336       12.67725       87.40026
C         52.21385       11.61129       88.31862
O         51.55110       11.31686       89.45189
O         53.25035       11.01930       88.06442
H         51.15366       14.56219       85.79311
H         53.53239       13.09866       86.45243
H         50.62208       12.43012       87.11288
H         51.64644       13.61737       87.99251
N         53.51262       10.85808       85.14192
C         53.60010        9.63207       84.34760
C         52.39725        8.71650       84.57667
O         51.74259        8.37536       83.60167
C         54.93897        8.94100       84.70043
C         55.27220        7.64965       83.94271
C         56.64444        7.13373       84.41824
C         57.05666        5.82556       83.73619
N         58.36516        5.38141       84.22275
H         54.32065       11.10470       85.73133
H         53.62618        9.90594       83.26886
H         54.93075        8.71032       85.78223
H         55.75827        9.66966       84.50425
H         55.30545        7.85157       82.85031
H         54.49483        6.88288       84.14934
H         56.60785        6.95851       85.51628
H         57.41836        7.90594       84.20845
H         57.10626        5.97665       82.63550
H         56.29915        5.04083       83.95435
H         58.33362        5.22550       85.25697
H         58.62160        4.48233       83.75504
H         59.09539        6.09717       84.00079
N         52.03170        8.30205       85.82553
C         50.88204        7.42184       86.08656
C         49.77099        8.10041       86.89263
O         48.76561        7.44544       87.13392
C         51.34582        6.10072       86.74878
C         52.24849        6.34624       87.91545
O         51.86720        7.14690       88.92187
O         53.40445        5.95460       87.87101
H         52.58914        8.63352       86.62731
H         50.38865        7.12934       85.13418
H         51.92002        5.51821       85.99453
H         50.47190        5.48588       87.05199
N         49.82143        9.41073       87.27213
C         48.68052       10.09389       87.87541
C         48.29030        9.63354       89.26800
O         47.23979       10.06258       89.72514
H         50.64281        9.97383       87.02745
H         47.80911        9.95500       87.19870
H         48.87564       11.18412       87.93564
N         49.05923        8.78899       90.01537
C         48.63756        8.29208       91.32837
C         48.47472        9.38297       92.39188
O         47.99892        9.06370       93.47270
C         49.60344        7.19580       91.84046
C         50.94445        7.73423       92.29264
N         51.37816        7.52606       93.55831
O         51.64489        8.36128       91.51572
H         49.94124        8.45104       89.61645
H         47.64935        7.80380       91.17319
H         49.75554        6.44147       91.03765
H         49.12169        6.67129       92.69388
H         50.80953        6.99544       94.23413
H         52.29194        7.89157       93.86467
N         48.86716       10.67274       92.17390
C         48.74029       11.74357       93.15085
C         50.08667       12.34134       93.52005
O         50.09784       13.36015       94.19607
H         49.29116       10.93350       91.27398
H         48.23478       11.40917       94.08387
H         48.11100       12.53635       92.69384
N         51.26060       11.73916       93.16445
C         52.58444       12.24045       93.52124
C         53.48411       12.24828       92.29735
O         53.49046       11.25062       91.58915
C         53.25322       11.31569       94.55874
C         52.51602       11.22933       95.87415
C         53.05729       11.83358       97.02208
C         51.30608       10.52102       95.98126
C         52.39888       11.73787       98.25053
C         50.65294       10.42008       97.21318
C         51.19844       11.02884       98.35274
O         50.58380       10.93436       99.54888
H         51.22717       10.83671       92.66962
H         52.53695       13.25420       93.97903
H         54.26698       11.73769       94.74387
H         53.39340       10.28811       94.16004
H         53.98887       12.38334       96.96802
H         50.87424       10.03008       95.11921
H         52.82704       12.21101       99.12529
H         49.72705        9.86310       97.28167
H         49.75919       10.44173       99.66632
N         54.34609       13.28051       92.03878
C         55.32669       13.22631       90.94664
C         56.76184       13.23431       91.49367
O         56.97980       13.67489       92.61404
C         55.04790       14.34020       89.89311
C         55.81810       14.07012       88.57533
C         55.34070       15.74283       90.45685
C         55.47539       15.03836       87.44402
H         54.34084       14.09783       92.66689
H         55.19909       12.25969       90.42030
H         53.96435       14.28107       89.64296
H         55.54428       13.05055       88.22506
H         56.91337       14.11364       88.73600
H         56.42149       15.85425       90.68741
H         55.04972       16.52985       89.73341
H         54.75512       15.92957       91.37870
H         54.38180       15.06071       87.26390
H         55.82703       16.06325       87.67480
H         55.98300       14.70475       86.51441
N         57.77647       12.67966       90.76622
C         59.17186       12.57504       91.19301
C         60.10620       13.14079       90.11886
O         59.62364       13.69861       89.14665
C         59.48455       11.09817       91.48803
O         59.35455       10.31668       90.33006
H         57.54171       12.25179       89.86509
H         59.34186       13.13221       92.14033
H         58.79979       10.74694       92.29764
H         60.51229       10.97475       91.88683
H         58.64909        9.64280       90.50918
N         61.46323       13.03539       90.23194
C         62.40829       13.58568       89.25658
C         62.25657       12.98887       87.86119
O         62.02726       13.74121       86.92466
C         63.85001       13.36471       89.73536
H         61.84672       12.56910       91.06741
H         62.24663       14.68516       89.19424
H         64.00036       13.84584       90.72448
H         64.07593       12.28111       89.83469
H         64.56778       13.81244       89.01473
N         62.41025       11.65079       87.64273
C         62.35219       11.03275       86.31547
C         61.03280       11.30814       85.63215
O         61.02349       11.70453       84.47494
C         62.54395        9.51496       86.42630
H         62.58408       11.04432       88.45885
H         63.17952       11.42366       85.68150
H         61.74195        9.05688       87.04439
H         62.51989        9.05288       85.41477
H         63.52792        9.28766       86.88738
N         59.87474       11.14222       86.32071
C         58.54743       11.36905       85.76214
C         58.44561       12.75770       85.15504
O         58.07127       12.86895       83.99591
C         57.47637       11.18595       86.85481
C         57.46660        9.75868       87.43048
C         56.36920        9.57725       88.43090
O         55.40511        8.68976       88.17856
O         56.33699       10.22002       89.46319
H         59.95931       10.87184       87.31059
H         58.34913       10.62261       84.95945
H         56.48228       11.39435       86.40897
H         57.65503       11.91728       87.66550
H         58.42150        9.49849       87.92501
H         57.31309        9.04400       86.59679
N         58.81157       13.85550       85.87054
C         58.78896       15.20573       85.34737
H         59.82377       15.60910       85.33563
H         58.38123       15.25449       84.31628
H         58.16612       15.84535       86.00562
H         59.16148       13.72784       86.82519
Ca        53.65737        8.32643       89.51374
O         55.36918        9.45847       92.33028
H         56.27704        9.10324       92.16542
H         54.87895        8.71912       92.76932
O         54.72572        6.22078       91.30224
H         53.96360        5.90580       90.75425
H         54.37286        6.23787       92.22686

Ca 1.0



