%chk=holoCaM.loop1.water2.frame42.chk
%nprocshared=20
%mem=10GB
%nosave
#b3lyp/svp scf=(tight,noincore,xqc) Test 
#IOP(5/87=12) Density=Current Pop=(MK,readradii) iop(6/33=2) iop(6/42=6)

holoCaM.loop1.water2.frame42 

   0  1 
C         -9.58302        1.21055       16.32752
C        -10.91233        1.89131       16.21431
O        -11.56083        2.08655       17.23253
H         -8.91424        1.81435       16.97581
H         -9.72219        0.20560       16.77730
H         -9.10282        1.09210       15.33361
N        -11.38193        2.29783       15.00157
C        -12.66011        2.97774       14.84959
C        -13.78578        2.03026       15.24645
O        -14.00168        1.03893       14.56236
C        -12.79996        3.47983       13.40068
C        -14.00912        4.32324       13.15802
O        -14.18746        4.78440       12.04730
O        -14.88075        4.60416       14.14195
H        -10.79349        2.14263       14.16777
H        -12.64440        3.86873       15.51299
H        -12.81334        2.61467       12.70229
H        -11.91410        4.10892       13.15967
N        -14.47970        2.23435       16.40305
C        -15.40508        1.24810       16.95225
C        -16.79192        1.40393       16.33534
O        -17.24215        0.50235       15.64324
C        -15.45282        1.40687       18.48901
C        -16.23938        0.30328       19.21311
C        -16.60093        0.71256       20.65311
C        -15.40885        1.15700       21.51839
N        -15.86814        1.58832       22.83880
H        -14.20082        3.03146       16.99312
H        -14.99565        0.23165       16.74779
H        -15.88069        2.39751       18.73851
H        -14.41305        1.39497       18.88545
H        -15.64755       -0.63882       19.19200
H        -17.20419        0.11428       18.69591
H        -17.12285       -0.13788       21.14353
H        -17.31480        1.56296       20.59046
H        -14.89318        2.01773       21.03982
H        -14.68061        0.32383       21.62436
H        -16.31620        0.79050       23.34419
H        -15.05100        1.93221       23.39286
H        -16.55523        2.37206       22.74018
N        -17.54175        2.51903       16.58939
C        -18.89974        2.73680       16.07570
C        -18.93848        3.02230       14.57062
O        -20.03482        3.13758       14.03999
C        -19.62558        3.86172       16.86662
C        -18.79139        5.09944       16.97012
O        -18.18854        5.59812       15.88124
O        -18.45488        5.50338       18.07306
H        -17.14029        3.22263       17.22157
H        -19.49692        1.81522       16.25549
H        -19.81657        3.49934       17.90311
H        -20.61142        4.08846       16.41037
N        -17.81029        3.10608       13.80753
C        -17.83919        3.22592       12.35747
C        -18.29882        4.57325       11.83812
O        -19.27305        4.62036       11.10091
H        -16.88811        2.98552       14.24460
H        -18.47339        2.40996       11.94482
H        -16.81091        3.07220       11.96684
N        -17.58660        5.70234       12.11762
C        -17.84566        7.00974       11.51145
C        -16.61240        7.52860       10.75438
O        -16.55887        8.71146       10.44545
C        -18.33040        8.01238       12.57833
C        -17.36875        8.22015       13.70542
O        -16.23650        8.60404       13.48516
O        -17.76938        8.03062       14.97359
H        -16.78665        5.62720       12.76175
H        -18.67385        6.95805       10.77068
H        -19.29641        7.65602       12.99616
H        -18.51941        8.99392       12.09155
N        -15.62134        6.68328       10.34901
C        -14.45867        7.10097        9.57695
C        -13.35829        7.80309       10.36096
O        -12.36012        8.12279        9.72850
H        -15.74607        5.67317       10.49062
H        -14.78813        7.72859        8.71923
H        -13.98393        6.19052        9.15118
N        -13.43026        8.08568       11.69874
C        -12.33962        8.75236       12.42442
C        -12.05096        8.10360       13.77916
O        -12.75653        7.19144       14.19103
C        -12.63941       10.26478       12.60387
C        -12.73711       11.01243       11.26660
O        -13.79113       10.47067       13.37764
H        -14.29104        7.85685       12.21053
H        -11.39695        8.67611       11.83805
H        -11.79140       10.73917       13.14004
H        -14.57693       10.28886       12.80237
H        -12.88967       12.09562       11.45850
H        -11.79637       10.88668       10.68942
H        -13.58756       10.63850       10.65940
N        -10.99842        8.55559       14.52505
C        -10.61731        8.06210       15.84505
C        -10.71190        9.20954       16.85118
O        -10.12778       10.26128       16.62696
C         -9.19045        7.42659       15.78002
C         -9.25048        6.14497       14.89880
C         -8.64967        7.08503       17.18343
C         -7.91836        5.40713       14.74686
H        -10.40770        9.30393       14.13109
H        -11.30138        7.26338       16.18031
H         -8.48888        8.16499       15.33287
H         -9.59996        6.41888       13.88112
H         -9.98506        5.42878       15.33285
H         -8.62075        7.98314       17.83190
H         -9.26588        6.30154       17.65695
H         -7.60385        6.72178       17.13297
H         -7.55959        5.01233       15.71982
H         -8.06012        4.53219       14.07744
H         -7.15081        6.07714       14.30831
N        -11.39211        9.03235       18.02228
C        -11.49503       10.02853       19.09281
C        -10.53196        9.68006       20.20771
O         -9.80396        8.71401       20.07836
C        -12.94244       10.05864       19.66753
C        -13.96911       10.50733       18.63416
O        -13.29220        8.81225       20.22919
H        -11.78091        8.09770       18.20784
H        -11.21800       11.04033       18.72321
H        -13.00801       10.80723       20.48348
H        -13.62156        8.21318       19.51022
H        -13.95008        9.79987       17.79033
H        -14.98385       10.51430       19.08802
H        -13.73105       11.52856       18.27053
N        -10.47570       10.42051       21.34830
C         -9.67728       10.02589       22.50760
C        -10.18489        8.70282       23.08087
O         -9.37473        7.88757       23.49863
C         -9.69758       11.11425       23.60679
C         -9.06710       12.42486       23.11343
O        -11.01447       11.34613       24.03744
H        -11.05569       11.26980       21.41133
H         -8.61257        9.90360       22.20270
H         -9.08211       10.73706       24.45818
H        -10.95242       11.77751       24.92957
H         -8.02142       12.24708       22.78254
H         -9.63892       12.85859       22.26723
H         -9.04993       13.16877       23.93722
N        -11.52372        8.41912       23.10087
C        -12.10008        7.17919       23.63934
C        -11.67084        5.92477       22.86842
O        -12.02361        4.82934       23.28328
C        -13.65248        7.22645       23.58544
C        -14.32065        8.44634       24.25418
C        -14.05181        8.61206       25.75482
C        -14.63942        7.46943       26.59422
N        -14.48592        7.74658       28.02173
H        -12.15601        9.13242       22.71775
H        -11.77071        7.07924       24.69588
H        -14.06521        6.29796       24.03557
H        -13.96282        7.23632       22.51652
H        -15.41859        8.36945       24.09685
H        -14.00355        9.37840       23.74748
H        -14.54434        9.55820       26.06828
H        -12.96242        8.71702       25.94612
H        -14.13240        6.51155       26.34851
H        -15.72339        7.36546       26.36385
H        -14.90764        6.96314       28.57049
H        -13.47277        7.83077       28.26620
H        -14.98296        8.63370       28.26897
N        -10.95409        6.01345       21.71727
C        -10.58482        4.89872       20.85933
C         -9.07080        4.76128       20.84910
O         -8.58325        3.67471       21.12634
C        -11.18625        5.15873       19.46252
C        -12.72324        5.09844       19.53088
C        -13.42055        5.44192       18.25002
O        -12.81140        5.76218       17.24593
O        -14.75763        5.36088       18.21949
H        -10.68866        6.93741       21.37625
H        -10.99856        3.93289       21.22745
H        -10.82987        4.39881       18.73335
H        -10.87570        6.16418       19.11865
H        -13.10186        5.80409       20.29930
H        -13.02311        4.06726       19.81890
N         -8.26256        5.83262       20.61262
C         -6.81800        5.79539       20.70057
H         -6.37945        6.15768       19.74835
H         -6.49105        6.47138       21.52102
H         -6.43119        4.77825       20.91436
H         -8.67888        6.74165       20.40877
Ca       -16.03347        5.81069       16.42911
O        -16.19959        7.95360       18.55778
H        -16.50800        7.54839       19.40643
H        -16.99899        7.95084       17.97386
O        -15.45779        9.38776       15.95610
H        -16.06516       10.04864       16.37299
H        -14.68951        9.92313       15.63847

Ca 1.0



