%chk=holoCaM-CaMKII.loop3.water2.frame83.chk
%nprocshared=20
%mem=10GB
%nosave
#b3lyp/svp scf=(tight,noincore,xqc) Test 
#IOP(5/87=12) Density=Current Pop=(MK,readradii) iop(6/33=2) iop(6/42=6)

holoCaM-CaMKII.loop3.water2.frame83 

   0  1 
C          6.09178       45.43156       67.22746
C          6.98604       44.80134       66.20878
O          6.48950       44.30499       65.20691
H          5.02660       45.32893       66.92908
H          6.24242       44.94501       68.21295
H          6.33927       46.51119       67.30470
N          8.33413       44.78743       66.40575
C          9.27036       44.25383       65.43266
C          9.94556       43.02847       66.00277
O         11.13294       43.03957       66.29801
C         10.25155       45.35387       65.02109
C         10.99678       45.00082       63.77388
O         11.76840       45.81715       63.30638
O         10.72905       43.87056       63.08734
H          8.71588       45.18650       67.27760
H          8.72894       43.94553       64.52181
H         10.94924       45.59186       65.85274
H          9.67486       46.27091       64.77209
N          9.19209       41.91969       66.20276
C          9.69244       40.69776       66.81215
C         10.77433       40.06084       65.94914
O         11.84683       39.79166       66.47274
C          8.52311       39.73291       67.12975
C          7.50875       40.41906       68.08068
C          6.41264       39.47711       68.58835
C          5.42122       40.19128       69.53331
N          4.60596       41.19742       68.84461
H          8.20318       41.96837       65.91752
H         10.13925       40.94695       67.80218
H          8.94224       38.83693       67.63836
H          8.00990       39.40408       66.19957
H          7.03033       41.26464       67.55481
H          8.05021       40.81894       68.96608
H          6.90393       38.65952       69.15934
H          5.85618       39.02776       67.73830
H          5.97144       40.66614       70.37686
H          4.74020       39.42513       69.96372
H          3.91269       41.59282       69.52034
H          5.18971       41.98731       68.49076
H          4.08437       40.75589       68.05286
N         10.58639       39.82357       64.61439
C         11.61474       39.20217       63.76749
C         12.93278       39.98630       63.70195
O         13.92197       39.42253       63.25478
C         11.07273       38.92957       62.34738
C         10.72590       40.19025       61.60016
O          9.45483       40.41969       61.22059
O         11.59370       41.00043       61.31772
H          9.67437       40.07002       64.19994
H         11.84503       38.21577       64.22908
H         10.16124       38.29909       62.43615
H         11.82109       38.35816       61.75614
N         13.02825       41.27087       64.14529
C         14.27819       42.00146       64.27132
C         15.00270       42.28683       62.97276
O         16.16324       41.91604       62.86854
H         12.18284       41.74807       64.47751
H         14.94932       41.44266       64.96144
H         14.06415       42.98375       64.74570
N         14.41546       43.01052       61.97466
C         15.15365       43.50458       60.80660
C         15.14911       45.03598       60.70661
O         15.81891       45.54695       59.81867
C         14.71297       42.82160       59.48486
C         13.23353       42.89077       59.08679
N         13.05280       42.39577       57.72642
O         12.72675       44.17615       59.16352
H         13.42663       43.26125       62.08484
H         16.22851       43.24226       60.91116
H         14.96521       41.74215       59.55349
H         15.32364       43.25293       58.66145
H         13.26083       41.37357       57.70292
H         12.05668       42.53321       57.44111
N         14.45324       45.83672       61.56903
C         14.49671       47.29488       61.53734
C         13.20230       47.93300       61.06325
O         13.13659       49.15233       61.06231
H         13.87873       45.41083       62.30248
H         15.29406       47.66136       60.85543
H         14.74713       47.65878       62.55787
N         12.16836       47.18841       60.57127
C         10.97368       47.76469       59.95694
C          9.68520       47.22025       60.56855
O          9.71245       46.27213       61.33326
C         10.98288       47.39884       58.45822
C         12.16068       47.97428       57.71128
C         13.34638       47.23516       57.54981
C         12.06718       49.25041       57.13696
C         14.41948       47.76674       56.82930
C         13.13828       49.77798       56.40973
C         14.31884       49.03680       56.25330
O         15.35726       49.53144       55.54997
H         12.26685       46.17333       60.54369
H         10.96792       48.86962       60.07159
H         10.04829       47.72343       57.95164
H         11.01007       46.29403       58.36718
H         13.44533       46.24949       57.97825
H         11.15901       49.83035       57.24226
H         15.32752       47.18756       56.71311
H         13.04686       50.76013       55.96440
H         15.32394       50.40124       55.12684
N          8.49574       47.80053       60.23077
C          7.17903       47.30506       60.62976
C          6.34481       47.11397       59.37073
O          6.24442       48.02788       58.56619
C          6.47368       48.28813       61.61297
C          7.25126       48.32656       62.95597
C          5.00596       47.85396       61.85765
C          6.69580       49.33436       63.96578
H          8.52330       48.64512       59.64100
H          7.25773       46.33125       61.16400
H          6.46099       49.30310       61.15849
H          8.30730       48.60710       62.76065
H          7.24402       47.31544       63.42336
H          4.96161       46.83539       62.30021
H          4.47108       48.56078       62.51992
H          4.42773       47.85395       60.91145
H          7.32346       49.32172       64.88125
H          6.71224       50.35666       63.53363
H          5.66264       49.08196       64.27828
N          5.64372       45.96023       59.20015
C          4.75309       45.69564       58.07722
C          3.30989       45.65138       58.55385
O          3.05049       45.83822       59.73250
C          5.13211       44.34795       57.44326
O          6.47175       44.36040       57.03184
H          5.70279       45.25285       59.93581
H          4.83553       46.49641       57.31062
H          4.50225       44.12974       56.55661
H          4.94328       43.52349       58.17417
H          6.97040       43.78754       57.66964
N          2.30810       45.40224       57.66414
C          0.90433       45.30743       58.04530
C          0.67722       44.18293       59.03889
O          0.10195       44.42973       60.09034
C          0.03890       45.06363       56.80087
H          2.55583       45.27345       56.67222
H          0.57593       46.27309       58.49130
H         -1.03423       45.01043       57.08425
H          0.16830       45.89779       56.07893
H          0.32233       44.11462       56.29700
N          1.08643       42.91362       58.75660
C          0.79782       41.76756       59.61237
C          1.36081       41.92887       61.01226
O          0.58849       41.90900       61.96062
C          1.34298       40.48025       58.97781
H          1.59118       42.75325       57.87024
H         -0.30768       41.65977       59.68534
H          1.09346       39.60257       59.61119
H          0.88940       40.33064       57.97526
H          2.44627       40.52952       58.85494
N          2.70087       42.05953       61.22063
C          3.28891       42.12662       62.55982
C          2.78630       43.30831       63.37627
O          2.84826       43.23903       64.59657
C          4.83237       42.10001       62.49447
C          5.42539       43.30832       61.75591
C          6.89950       43.13334       61.53602
O          7.35232       43.10828       60.40310
O          7.72867       42.98579       62.58061
H          3.31448       42.05063       60.39435
H          2.97082       41.20202       63.09186
H          5.12762       41.17276       61.95635
H          5.25911       42.05251       63.52123
H          5.23721       44.24235       62.32798
H          4.94382       43.40396       60.76561
N          2.27378       44.42194       62.78411
C          1.73697       45.52389       63.55250
H          0.86059       45.17553       64.14048
H          2.50851       45.92898       64.24108
H          1.40376       46.33469       62.87032
H          2.26421       44.49789       61.75872
Ca        11.36405       43.95120       60.94778
O          9.83522       41.29100       58.43598
H         10.59108       40.65399       58.38374
H          9.14679       40.91537       57.83233
O          9.87556       44.11958       57.98269
H          9.50990       44.51578       57.15271
H          9.08826       43.97267       58.56235

Ca 1.0



