%chk=holoCaM.loop4.water3.frame52.chk
%nprocshared=20
%mem=10GB
%nosave
#b3lyp/svp scf=(tight,noincore,xqc) Test 
#IOP(5/87=12) Density=Current Pop=(MK,readradii) iop(6/33=2) iop(6/42=6)

holoCaM.loop4.water3.frame52 

   -3  1 
C        100.93825       92.55978       24.55341
C        100.65369       93.57855       25.61584
O         99.72647       93.39064       26.38058
H        101.94154       92.12019       24.74301
H        100.19041       91.73756       24.58737
H        100.92497       93.02609       23.54847
N        101.43814       94.68167       25.73809
C        101.35242       95.61054       26.85927
C        100.93085       97.00310       26.41189
O        101.56341       97.56744       25.53225
C        102.73281       95.63122       27.53504
C        102.79420       96.59230       28.67555
O        101.93515       96.48009       29.70726
O        103.62967       97.48157       28.66683
H        102.18328       94.83163       25.04018
H        100.61794       95.25558       27.61571
H        103.51292       95.90523       26.79028
H        102.96442       94.61473       27.91789
N         99.88528       97.63029       27.03900
C         99.43582       98.98981       26.72454
C         99.64656       99.97002       27.88933
O         99.40002      101.15172       27.67417
C         97.93295       98.99422       26.27490
C         96.97960       98.48784       27.39413
C         97.75924       98.17636       24.98309
C         95.48775       98.63359       27.08107
H         99.40023       97.12659       27.79201
H        100.04288       99.39314       25.88557
H         97.65868      100.04710       26.04088
H         97.16815       99.05804       28.32855
H         97.17428       97.42094       27.58592
H         98.43358       98.56628       24.19240
H         97.99099       97.10396       25.15791
H         96.72405       98.25684       24.59376
H         95.18993       98.02708       26.20251
H         94.89508       98.26857       27.94824
H         95.23226       99.69908       26.90419
N        100.04261       99.58294       29.14144
C        100.12160      100.50874       30.28209
C        101.38725      100.36057       31.15170
O        101.50652      101.08878       32.12516
C         98.82620      100.40642       31.12416
C         98.51512       99.05216       31.68986
O         99.22116       98.09226       31.44808
O         97.41657       98.89070       32.45092
H        100.17716       98.57929       29.32068
H        100.13372      101.55912       29.91564
H         97.96553      100.69450       30.48216
H         98.88061      101.13506       31.96110
N        102.39006       99.48676       30.84358
C        103.65454       99.37274       31.57699
C        103.59296       98.72829       32.96168
O        104.64285       98.59305       33.57362
H        102.29838       98.94197       29.98654
H        104.12073      100.37902       31.65426
H        104.34108       98.73666       30.97770
N        102.42692       98.31125       33.52560
C        102.31433       97.73388       34.87637
C        102.94605       96.33552       35.05951
O        102.90624       95.83596       36.17584
C        100.81669       97.66298       35.27051
C        100.12250       96.59460       34.47621
O        100.30167       96.55980       33.14504
O         99.54535       95.68182       35.04230
H        101.56764       98.49704       32.99736
H        102.80488       98.44276       35.57956
H        100.34441       98.65081       35.08278
H        100.71364       97.43621       36.35493
N        103.52119       95.63573       34.03765
C        104.12711       94.31459       34.20650
C        103.15765       93.13586       34.33157
O        103.65185       92.02045       34.41375
H        103.59935       96.07400       33.11116
H        104.83111       94.33383       35.06720
H        104.73518       94.09975       33.30073
N        101.79741       93.27173       34.31429
C        100.85935       92.13814       34.32015
C         99.96643       92.17240       33.05318
O        100.72853       92.50141       31.93277
C         99.97004       92.19799       35.58336
C        100.72754       91.76423       36.84161
C         99.82232       91.79959       38.04647
N         99.33606       92.97349       38.51143
O         99.52734       90.75647       38.61119
H        101.40236       94.21492       34.26143
H        101.40419       91.16866       34.29534
H         99.11249       91.50289       35.49716
H         99.54698       93.21848       35.69153
H        101.61517       92.40473       37.02357
H        101.07303       90.71783       36.68129
H         99.58753       93.86397       38.05854
H         98.71736       92.99314       39.33578
N         99.29061       90.88965       32.81026
C         98.34221       90.91570       31.67879
C         96.91045       91.20849       32.13795
O         96.41332       90.54995       33.04056
C         98.48013       89.59102       30.88098
C         98.06265       88.34728       31.67817
C         97.71536       89.65605       29.54953
H         98.85682       90.46563       33.65850
H         98.65003       91.69866       30.95120
H         99.55809       89.47907       30.62395
H         96.97964       88.36826       31.91659
H         98.26471       87.43359       31.08022
H         98.64415       88.27265       32.62028
H         96.62502       89.76478       29.71805
H         98.07419       90.51647       28.94430
H         97.89453       88.73271       28.95882
N         96.17238       92.15540       31.49617
C         94.78025       92.47416       31.80090
C         93.86852       91.82266       30.76568
O         94.35530       91.16657       29.85783
C         94.65473       94.02261       31.80918
C         93.31403       94.60318       32.17624
N         92.77416       94.38083       33.39511
O         92.72575       95.31649       31.37735
H         96.60071       92.63807       30.69976
H         94.49779       92.06259       32.79365
H         94.94558       94.40316       30.80298
H         95.36610       94.42052       32.55243
H         93.26454       93.80110       34.09023
H         91.86893       94.80313       33.64729
N         92.51755       91.92328       30.88186
C         91.55410       91.42691       29.89696
C         91.65106       92.19016       28.57763
O         91.65746       91.54390       27.53916
C         90.12843       91.34502       30.50303
C         89.68882       92.53914       31.32301
C         89.30120       93.75124       30.73466
C         89.68127       92.42667       32.72828
C         88.91792       94.83201       31.54188
C         89.31222       93.50511       33.52817
C         88.92857       94.71140       32.94181
O         88.57512       95.74319       33.73393
H         92.16170       92.37730       31.72921
H         91.78924       90.36345       29.65739
H         90.18082       90.48110       31.20317
H         89.36632       91.06477       29.74401
H         89.28722       93.85725       29.65836
H         89.98488       91.50548       33.21165
H         88.61554       95.76303       31.08082
H         89.33165       93.40110       34.60633
H         88.30282       96.59938       33.37648
N         91.84060       93.54284       28.53137
C         92.10973       94.26683       27.27909
C         93.41716       93.82973       26.60339
O         93.68016       94.29735       25.50294
C         92.21084       95.79067       27.53570
C         90.87308       96.42035       27.93850
C         91.04317       97.89358       28.18138
O         90.45020       98.70518       27.48855
O         91.85089       98.32612       29.16890
H         91.83003       94.06431       29.41708
H         91.27761       94.07287       26.56663
H         92.53639       96.30563       26.60357
H         92.98370       95.97692       28.31613
H         90.47287       95.95369       28.86062
H         90.14368       96.26052       27.11313
N         94.29639       92.97843       27.20282
C         95.59009       92.59630       26.65050
C         95.73242       91.08889       26.44850
O         96.75969       90.68320       25.92210
C         96.67946       93.02143       27.64738
C         96.67842       94.52365       27.96995
C         97.68134       94.87221       29.04115
O         98.48186       93.93453       29.57746
O         97.75559       96.01605       29.45486
H         94.08061       92.63549       28.13527
H         95.75655       93.08970       25.66801
H         97.66936       92.71915       27.26912
H         96.50015       92.45414       28.57798
H         95.67648       94.82098       28.34521
H         96.90100       95.09871       27.04605
N         94.79263       90.19558       26.87656
C         94.95426       88.75828       26.76927
H         94.95284       88.31538       27.78846
H         94.10922       88.33176       26.19134
H         95.90422       88.46918       26.27258
H         93.93544       90.52245       27.33456
Ca       100.22489       94.67704       31.97040
O        103.08771       94.39886       31.17452
H        103.20607       93.55503       30.67432
H        103.83568       94.97397       30.87491
O        101.09777       92.93663       29.06322
H        100.37415       92.43458       28.61342
H        101.91680       92.42360       28.85392
O         97.59496       95.27770       32.39913
H         97.51681       95.22259       33.38365
H         97.50000       96.23930       32.19453

Ca 1.0



