%chk=holoCaM.loop1.water2.frame210.chk
%nprocshared=20
%mem=10GB
%nosave
#b3lyp/svp scf=(tight,noincore,xqc) Test 
#IOP(5/87=12) Density=Current Pop=(MK,readradii) iop(6/33=2) iop(6/42=6)

holoCaM.loop1.water2.frame210 

   0  1 
C         21.38999       71.61952      111.52974
C         21.72839       71.13207      112.90608
O         21.56122       71.87299      113.86434
H         22.29950       71.58850      110.89338
H         20.61113       70.96596      111.08368
H         21.00986       72.66247      111.56151
N         22.21259       69.87129      113.07385
C         22.56762       69.31966      114.37580
C         23.70160       70.13027      115.00286
O         24.81768       70.10046      114.50349
C         22.93998       67.83381      114.20233
C         23.42606       67.19442      115.46014
O         22.64675       67.14438      116.55167
O         24.54069       66.70600      115.48820
H         22.31347       69.27976      112.23333
H         21.66750       69.37121      115.03023
H         23.73904       67.74483      113.43313
H         22.04829       67.27680      113.83837
N         23.44372       70.93288      116.07639
C         24.41874       71.85502      116.66125
C         25.39323       71.20467      117.64101
O         26.26850       71.91928      118.11045
C         23.69323       73.04501      117.35599
C         22.84813       72.64535      118.58315
C         22.08158       73.83689      119.17315
C         21.07209       73.42001      120.26282
N         21.71333       72.83639      121.44066
H         22.46226       71.00085      116.36779
H         25.00229       72.30504      115.82689
H         23.03329       73.53013      116.60320
H         24.44602       73.79809      117.67717
H         23.50155       72.19222      119.35435
H         22.09697       71.91015      118.27881
H         21.49214       74.31077      118.35807
H         22.79482       74.58886      119.57354
H         20.34223       72.69354      119.83889
H         20.50499       74.32297      120.57742
H         22.40252       73.50689      121.85029
H         20.98071       72.61883      122.15453
H         22.18867       71.94534      121.19161
N         25.29548       69.90035      118.04177
C         26.15295       69.33129      119.08976
C         26.99072       68.15493      118.61619
O         27.75164       67.62803      119.41775
C         25.27211       68.82466      120.24275
C         24.40391       69.88801      120.83587
O         24.95309       70.97464      121.40997
O         23.19176       69.75528      120.82352
H         24.55547       69.30265      117.64381
H         26.85732       70.09543      119.48392
H         25.90314       68.40465      121.05562
H         24.63106       68.01672      119.84122
N         26.88381       67.64962      117.36035
C         27.57622       66.44804      116.93462
C         27.15988       65.24240      117.75426
O         28.02314       64.50924      118.21442
H         26.26242       68.10093      116.67652
H         28.67817       66.59275      116.97260
H         27.29639       66.24562      115.87817
N         25.83867       64.97016      117.95065
C         25.33031       63.75584      118.58189
C         24.46133       62.95363      117.60873
O         23.97051       61.90175      117.99487
C         24.54917       64.08889      119.87413
C         23.42724       65.07336      119.69219
O         23.34031       66.13824      120.50737
O         22.57156       64.89936      118.84339
H         25.14701       65.64994      117.60685
H         26.16780       63.08653      118.87635
H         25.24805       64.49950      120.63489
H         24.12905       63.14608      120.28583
N         24.23578       63.37531      116.33056
C         23.42378       62.66044      115.36597
C         21.97954       62.55085      115.79071
O         21.43903       61.45919      115.72073
H         24.66680       64.24097      115.98730
H         23.85689       61.65564      115.16700
H         23.44279       63.23015      114.41079
N         21.27759       63.66277      116.15630
C         19.83327       63.68298      116.42885
C         19.28437       65.11486      116.40993
O         20.03844       66.07678      116.45522
C         19.39689       62.99227      117.76167
C         19.51790       61.46143      117.82265
O         20.03446       63.58195      118.86368
H         21.79579       64.55307      116.13013
H         19.33746       63.18053      115.56865
H         18.30578       63.16878      117.87624
H         20.92305       63.15073      118.95824
H         19.04767       61.09629      118.76050
H         18.98665       60.99924      116.96369
H         20.57116       61.12454      117.85492
N         17.94496       65.30724      116.23826
C         17.31507       66.60930      116.03587
C         16.16374       66.79711      117.01850
O         15.33272       65.91257      117.16804
C         16.86989       66.72462      114.54430
C         18.14884       66.79205      113.65574
C         15.97938       67.96064      114.30638
C         17.89055       66.87197      112.15259
H         17.34303       64.47469      116.14141
H         18.03651       67.43948      116.19831
H         16.26628       65.82943      114.27618
H         18.76586       65.88548      113.82709
H         18.75689       67.67941      113.94583
H         16.52388       68.89415      114.54163
H         15.62869       68.00446      113.25667
H         15.06127       67.90713      114.92556
H         17.35729       67.80492      111.88057
H         18.86571       66.88567      111.61978
H         17.30933       65.98994      111.81448
N         16.02564       67.99538      117.65437
C         14.95348       68.35982      118.57083
C         14.08146       69.42133      117.90925
O         14.28941       69.72451      116.74206
C         15.55838       68.90539      119.90019
C         16.51314       67.91183      120.57684
O         16.17922       70.15533      119.70845
H         16.69198       68.73727      117.42900
H         14.31725       67.47980      118.80871
H         14.73628       69.07097      120.62609
H         17.07697       70.00565      119.32356
H         17.38845       67.70117      119.92811
H         16.88236       68.34246      121.53248
H         15.98672       66.95960      120.79390
N         13.10181       70.05949      118.60721
C         12.31919       71.15821      118.04679
C         13.23405       72.29111      117.58877
O         13.12702       72.70954      116.44578
C         11.27741       71.69167      119.06890
C         10.21633       70.63937      119.41111
O         11.91247       72.11473      120.24902
H         12.93551       69.78257      119.58438
H         11.75078       70.79275      117.16130
H         10.75529       72.55326      118.58779
H         11.32921       72.80179      120.66545
H         10.66656       69.75072      119.89917
H          9.47009       71.07618      120.10835
H          9.68666       70.31583      118.49040
N         14.14116       72.84818      118.43952
C         14.97459       74.00180      118.09570
C         16.10742       73.70273      117.10716
O         16.79587       74.64837      116.74842
C         15.50633       74.65556      119.39390
C         14.32783       75.25152      120.19263
C         14.76131       75.89355      121.51389
C         13.60865       76.65885      122.19672
N         12.46152       75.80519      122.51657
H         14.18811       72.47828      119.40044
H         14.33183       74.76808      117.60584
H         16.19478       75.49266      119.14456
H         16.06860       73.90671      119.99469
H         13.58321       74.46071      120.41351
H         13.84367       76.02858      119.56054
H         15.57225       76.62710      121.31442
H         15.15771       75.10893      122.19470
H         13.27312       77.48947      121.53603
H         13.99804       77.10943      123.13596
H         11.75332       76.37310      123.03576
H         12.00484       75.45361      121.64497
H         12.75989       75.00303      123.11659
N         16.33702       72.46266      116.57763
C         17.34669       72.20302      115.54329
C         16.69536       71.84670      114.20670
O         17.42471       71.71288      113.23333
C         18.26332       71.03373      115.96398
C         19.02790       71.27141      117.27196
C         19.65845       69.99035      117.76431
O         20.97596       69.88912      117.97621
O         18.96170       69.02953      118.03206
H         15.75240       71.67602      116.87983
H         17.96359       73.11054      115.36392
H         18.99937       70.79992      115.16208
H         17.60925       70.15469      116.08363
H         18.32753       71.61373      118.06085
H         19.79274       72.06330      117.11732
N         15.34741       71.66461      114.07477
C         14.69760       71.32402      112.82529
H         13.93304       72.09412      112.58965
H         15.40898       71.26320      111.97621
H         14.19028       70.34185      112.93212
H         14.73071       71.74849      114.88809
Ca        21.68034       68.01204      119.00510
O         19.52341       66.06480      120.41282
H         19.97056       66.15596      121.29128
H         18.87191       65.33020      120.54127
O         19.68272       69.44798      121.11149
H         20.44996       69.64253      121.70590
H         19.43287       70.32822      120.73344

Ca 1.0



