%chk=holoCaM.loop4.water3.frame403.chk
%nprocshared=20
%mem=10GB
%nosave
#b3lyp/svp scf=(tight,noincore,xqc) Test 
#IOP(5/87=12) Density=Current Pop=(MK,readradii) iop(6/33=2) iop(6/42=6)

holoCaM.loop4.water3.frame403 

   -3  1 
C         91.10782       59.25187        5.82370
C         90.49300       59.03087        7.17193
O         89.27698       58.92241        7.24108
H         92.21338       59.31666        5.88524
H         90.83760       58.40437        5.15821
H         90.71395       60.19330        5.38652
N         91.26447       58.96575        8.29747
C         90.69070       58.72512        9.61713
C         91.73784       58.93013       10.70854
O         92.80526       58.33629       10.64073
C         90.11143       57.29463        9.70392
C         89.20755       57.11292       10.88983
O         88.73704       56.01262       11.12444
O         88.83911       58.16533       11.64451
H         92.28146       59.11468        8.20766
H         89.87191       59.46425        9.75871
H         90.94844       56.56400        9.73641
H         89.48900       57.05529        8.81901
N         91.47827       59.76778       11.75059
C         92.44666       60.14352       12.77952
C         92.03805       59.60446       14.15591
O         92.92249       59.27837       14.93535
C         92.58370       61.70237       12.78735
C         92.94865       62.21952       11.36569
C         93.61793       62.17802       13.82590
C         92.94082       63.74505       11.22972
H         90.54965       60.20461       11.78800
H         93.44762       59.71731       12.54300
H         91.59889       62.13095       13.07124
H         92.20007       61.84747       10.63754
H         93.94108       61.82519       11.05836
H         94.62714       61.78573       13.57947
H         93.66157       63.28486       13.86754
H         93.33843       61.84647       14.84618
H         91.94959       64.15485       11.51831
H         93.72981       64.21648       11.84755
H         93.13632       64.01866       10.17078
N         90.72886       59.49983       14.52845
C         90.27289       59.09030       15.86450
C         89.47280       57.79141       15.87086
O         89.15853       57.32116       16.95637
C         89.40826       60.22051       16.48026
C         88.40099       60.73935       15.47943
O         87.56332       59.90097       14.83615
O         88.46281       61.90452       15.12149
H         90.01149       59.74763       13.83662
H         91.14232       58.90019       16.53183
H         90.07640       61.06453       16.75806
H         88.90739       59.87248       17.41005
N         89.09229       57.15756       14.73015
C         88.32631       55.92340       14.72090
C         87.00358       56.05405       15.44397
O         86.78521       55.29810       16.38069
H         89.35637       57.55390       13.82660
H         88.93245       55.11778       15.19154
H         88.12431       55.62431       13.67127
N         86.06832       56.97529       15.06077
C         84.75660       57.08782       15.70977
C         83.59316       56.78234       14.76999
O         82.52092       56.47692       15.27305
C         84.56700       58.45003       16.41847
C         84.58861       59.67088       15.53579
O         84.79680       59.58971       14.33918
O         84.38531       60.88244       16.08539
H         86.30685       57.60351       14.28085
H         84.68770       56.32153       16.51249
H         85.36414       58.57222       17.18208
H         83.58732       58.43535       16.94363
N         83.70964       56.85542       13.41271
C         82.63880       56.50532       12.48905
C         82.12550       57.68524       11.68325
O         81.30807       57.45726       10.80245
H         84.59245       57.17071       12.99821
H         81.77095       56.05472       13.01491
H         83.04058       55.73801       11.79193
N         82.53003       58.96601       11.92657
C         82.07503       60.12963       11.17003
C         83.26218       60.81377       10.51499
O         84.38462       60.35481       10.68796
C         81.38012       61.14305       12.10284
C         80.18408       60.57392       12.87003
C         79.50799       61.69103       13.62716
N         79.48914       61.70914       14.97918
O         78.98202       62.60334       13.00565
H         83.19449       59.14204       12.68514
H         81.35951       59.82918       10.37309
H         81.01689       61.99300       11.48814
H         82.11495       61.53592       12.84140
H         80.54398       59.78571       13.56638
H         79.44758       60.11833       12.17318
H         79.94042       60.96251       15.52607
H         79.03636       62.48791       15.48101
N         83.08960       61.94135        9.76343
C         84.19399       62.66185        9.14686
C         84.27204       64.05926        9.75410
O         83.35101       64.84702        9.58395
C         84.01103       62.69579        7.60606
C         85.20088       63.37983        6.92276
C         83.85238       61.27614        7.03523
H         82.13879       62.31422        9.61995
H         85.15130       62.13558        9.35381
H         83.08658       63.26503        7.36141
H         86.14178       62.82733        7.13196
H         85.04668       63.41308        5.82365
H         85.30386       64.42137        7.28284
H         82.95889       60.77567        7.46473
H         83.71221       61.31798        5.93414
H         84.74788       60.65887        7.25815
N         85.35107       64.41303       10.50910
C         85.52868       65.71662       11.15327
C         85.72637       66.81553       10.10898
O         85.79217       66.51375        8.93078
C         86.77459       65.62034       12.08377
C         86.99555       66.77188       13.02846
N         86.07642       67.07449       13.97274
O         88.03372       67.41239       12.97075
H         86.06937       63.69500       10.66756
H         84.62788       65.92228       11.77070
H         87.67506       65.47187       11.45780
H         86.67893       64.72695       12.72711
H         85.20771       66.52775       14.05645
H         86.24341       67.84748       14.63362
N         85.85650       68.12033       10.47394
C         86.23235       69.18689        9.54138
C         87.61591       68.90925        8.96232
O         87.79118       68.95195        7.75307
C         86.13573       70.57530       10.23930
C         86.95384       70.74604       11.50671
C         86.31795       70.67505       12.75963
C         88.33855       70.98875       11.46253
C         87.05293       70.80757       13.93958
C         89.07308       71.12379       12.64591
C         88.43168       71.02713       13.88919
O         89.12610       71.14527       15.03885
H         85.71705       68.35760       11.46369
H         85.50053       69.22822        8.70311
H         85.06161       70.69231       10.50312
H         86.36847       71.40082        9.53177
H         85.25184       70.49720       12.82572
H         88.85260       71.07091       10.51359
H         86.54840       70.73405       14.89476
H         90.14015       71.30081       12.59543
H         90.08235       71.29286       15.05092
N         88.63139       68.56257        9.79569
C         90.00429       68.26848        9.39830
C         90.04763       67.09967        8.42186
O         90.68562       67.19048        7.38341
C         90.80243       67.93321       10.69235
C         92.31796       67.73254       10.54273
C         93.03886       68.99546       10.15431
O         92.85404       69.51051        9.06421
O         93.91334       69.55765       11.01142
H         88.40117       68.49109       10.79474
H         90.44052       69.17402        8.93098
H         90.37569       67.00866       11.14231
H         90.65591       68.75320       11.43110
H         92.54533       66.91733        9.82510
H         92.70067       67.42182       11.54097
N         89.37082       65.96225        8.72452
C         89.37329       64.72580        7.94240
C         88.82334       64.94540        6.54227
O         89.47633       64.55274        5.58519
C         88.59191       63.62724        8.72134
C         89.33779       63.33368       10.04409
C         88.70668       62.39701       11.03189
O         89.26599       62.25676       12.10559
O         87.55684       61.72941       10.82726
H         88.81364       65.98947        9.58717
H         90.41716       64.35267        7.83849
H         88.53723       62.68914        8.12679
H         87.55973       63.98342        8.91545
H         89.48640       64.26935       10.61209
H         90.34334       62.94159        9.79250
N         87.64642       65.59182        6.33919
C         87.09225       65.81544        5.02092
H         86.15172       66.40267        5.10085
H         87.81029       66.38341        4.39214
H         86.86145       64.84294        4.53755
H         87.13757       65.96068        7.14477
Ca        87.08448       60.51596       12.69515
O         86.64462       59.67385        8.98825
H         87.56583       59.46042        9.27664
H         86.30576       58.83014        8.59798
O         85.38465       62.75162       13.40910
H         86.06074       62.77078       14.13277
H         84.59475       62.31755       13.81366
O         85.96430       57.48146       10.90548
H         85.07321       57.36760       10.48979
H         86.15663       56.60503       11.32349

Ca 1.0



