%chk=holoCaM-CaMKII.loop4.water2.frame249.chk
%nprocshared=20
%mem=10GB
%nosave
#b3lyp/svp scf=(tight,noincore,xqc) Test 
#IOP(5/87=12) Density=Current Pop=(MK,readradii) iop(6/33=2) iop(6/42=6)

holoCaM-CaMKII.loop4.water2.frame249 

   -3  1 
C         93.91156       -2.74675       66.06982
C         93.58266       -2.24667       67.44194
O         94.33669       -1.44205       67.96955
H         94.89819       -3.25205       66.08221
H         93.14255       -3.45825       65.70311
H         93.94967       -1.88253       65.37232
N         92.43883       -2.63869       68.06780
C         92.03280       -2.07034       69.34128
C         92.93053       -2.57069       70.47783
O         92.98341       -3.77060       70.70812
C         90.54248       -2.37519       69.60962
C         89.99075       -1.49045       70.68512
O         88.82645       -1.59553       71.02599
O         90.77468       -0.54293       71.22907
H         91.79789       -3.28137       67.57661
H         92.10576       -0.96777       69.22469
H         90.40554       -3.44795       69.86614
H         89.94878       -2.15131       68.69599
N         93.66424       -1.69525       71.22543
C         94.62702       -2.08726       72.25795
C         93.99498       -2.13860       73.65003
O         94.47701       -2.92030       74.45894
C         95.88114       -1.14312       72.21250
C         96.58918       -1.27412       70.83531
C         96.87035       -1.42745       73.36312
C         97.78679       -0.33696       70.63835
H         93.58940       -0.69865       71.00054
H         94.98722       -3.11987       72.04503
H         95.53103       -0.09372       72.33897
H         95.86184       -1.03769       70.03334
H         96.93536       -2.32078       70.68943
H         96.38702       -1.27193       74.34915
H         97.26096       -2.46457       73.30331
H         97.71920       -0.71513       73.34756
H         98.18035       -0.45953       69.60703
H         97.49249        0.72179       70.77952
H         98.61395       -0.57398       71.33593
N         92.96029       -1.32933       74.02426
C         92.41297       -1.30881       75.38868
C         90.96520       -1.79997       75.45677
O         90.41887       -1.83977       76.55062
C         92.63498        0.08590       76.02366
C         92.01541        1.18330       75.22067
O         90.68876        1.19729       75.02204
O         92.72784        1.98034       74.63292
H         92.56132       -0.68340       73.32826
H         92.97052       -2.01538       76.04093
H         93.73387        0.25809       76.06797
H         92.24427        0.11782       77.06236
N         90.31945       -2.29448       74.36184
C         89.04471       -2.99217       74.43147
C         87.85656       -2.13317       74.79221
O         87.15126       -2.46434       75.73469
H         90.79080       -2.29319       73.44688
H         89.13278       -3.84526       75.14045
H         88.82671       -3.42213       73.42948
N         87.51909       -1.07114       74.01227
C         86.25031       -0.35614       74.11300
C         85.46589       -0.49250       72.80195
O         84.50468        0.23827       72.60642
C         86.47253        1.11378       74.54888
C         87.23322        2.00455       73.60710
O         87.45427        3.28739       73.94913
O         87.64383        1.59667       72.53845
H         88.15884       -0.80523       73.25349
H         85.61079       -0.79070       74.91285
H         87.00907        1.10573       75.52202
H         85.47907        1.58432       74.71488
N         85.78685       -1.45687       71.88149
C         85.08434       -1.64718       70.62027
C         85.41826       -0.60756       69.56425
O         84.85895       -0.70163       68.47955
H         86.52328       -2.14245       72.09660
H         83.98923       -1.68631       70.80927
H         85.38421       -2.62867       70.19245
N         86.30705        0.40287       69.78945
C         86.63234        1.44235       68.81786
C         88.13441        1.58150       68.60999
O         88.91943        0.95331       69.30752
C         86.09292        2.78881       69.33438
C         84.55992        2.82888       69.37814
C         84.03688        4.13155       69.93622
N         82.70486        4.35527       69.98201
O         84.80479        4.98960       70.34946
H         86.75495        0.46821       70.70638
H         86.17320        1.21682       67.82923
H         86.42595        3.61661       68.67197
H         86.50188        2.96730       70.35201
H         84.16819        1.99975       70.00481
H         84.17757        2.70464       68.34137
H         82.04181        3.64934       69.63056
H         82.33697        5.24002       70.36176
N         88.59282        2.42042       67.63925
C         89.99595        2.71202       67.36666
C         90.20210        4.22068       67.40720
O         89.47538        4.93416       66.72604
C         90.39431        2.10829       65.99015
C         91.79416        2.55797       65.53615
C         90.37957        0.57030       66.07309
H         87.89523        2.87795       67.02971
H         90.65621        2.24772       68.12303
H         89.66928        2.44369       65.21603
H         92.04400        2.10493       64.55331
H         91.83509        3.65980       65.40775
H         92.56176        2.24810       66.27061
H         91.11386        0.21719       66.83270
H         89.37552        0.19347       66.35559
H         90.65403        0.12389       65.09416
N         91.22585        4.76705       68.13096
C         91.52655        6.19982       68.14871
C         92.78458        6.48284       67.34158
O         93.36568        5.54982       66.80914
C         91.59842        6.77154       69.58978
C         92.85185        6.44402       70.37592
N         93.13772        5.19119       70.78979
O         93.61281        7.35292       70.67375
H         91.86654        4.12429       68.61159
H         90.70248        6.74932       67.64299
H         90.69567        6.47888       70.16529
H         91.56426        7.87893       69.49654
H         92.50089        4.40779       70.61035
H         93.99396        5.01197       71.33515
N         93.23479        7.75695       67.16074
C         94.36298        8.09404       66.29176
C         95.67079        7.46698       66.74874
O         96.46650        7.09090       65.89943
C         94.51624        9.62461       66.17994
C         95.49564       10.03994       65.10420
C         95.25951        9.69221       63.76119
C         96.63549       10.79665       65.42267
C         96.14524       10.09234       62.75821
C         97.51963       11.19956       64.41512
C         97.27521       10.84936       63.07866
O         98.11280       11.23756       62.09594
H         92.71470        8.52591       67.61060
H         94.11776        7.70161       65.28076
H         94.81011       10.03184       67.17310
H         93.53321       10.06759       65.91022
H         94.38528        9.11688       63.48499
H         96.83802       11.08115       66.44746
H         95.94775        9.81869       61.72912
H         98.39128       11.78751       64.67310
H         98.89911       11.77380       62.27062
N         95.95896        7.31761       68.07246
C         97.17746        6.67159       68.55592
C         97.24115        5.24803       68.02231
O         98.22060        4.87939       67.38941
C         97.19696        6.68056       70.10467
C         98.53837        6.20549       70.68413
C         98.51066        6.23231       72.18720
O         98.70821        5.20947       72.82354
O         98.27703        7.38680       72.84136
H         95.27346        7.65934       68.76035
H         98.05711        7.25443       68.20121
H         96.36927        6.05067       70.49975
H         97.03029        7.72362       70.45335
H         99.35001        6.87987       70.33418
H         98.76211        5.17357       70.33755
N         96.18628        4.41028       68.22008
C         96.12068        3.03422       67.72832
C         96.17898        2.95777       66.20722
O         96.55780        1.91435       65.69382
C         94.80760        2.37793       68.20725
C         94.76083        2.24261       69.73980
C         93.42940        1.79206       70.26425
O         93.24850        1.68524       71.59389
O         92.50362        1.54115       69.51281
H         95.38072        4.78851       68.74055
H         96.98317        2.46314       68.13956
H         94.68370        1.36720       67.75937
H         93.96873        3.02185       67.86659
H         94.97824        3.21226       70.22068
H         95.53307        1.52157       70.05989
N         95.77639        3.99842       65.42514
C         95.78245        3.97812       63.97694
H         96.41222        4.81277       63.60321
H         96.17658        3.02594       63.56611
H         94.74578        4.12186       63.60450
H         95.42926        4.85205       65.86790
Ca        90.25626        0.84718       72.87985
O         89.25218        4.32687       71.06311
H         89.12518        5.04000       71.73786
H         88.53164        3.67971       71.25747
O         91.45324        4.17037       73.14858
H         91.29431        5.12723       72.95244
H         92.43382        4.10826       73.26663

Ca 1.0



