%chk=holoCaM-CaMKII.loop4.water1.frame471.chk
%nprocshared=20
%mem=10GB
%nosave
#b3lyp/svp scf=(tight,noincore,xqc) Test 
#IOP(5/87=12) Density=Current Pop=(MK,readradii) iop(6/33=2) iop(6/42=6)

holoCaM-CaMKII.loop4.water1.frame471 

   -3  1 
C         85.18205       44.54391       59.58090
C         86.15525       43.68211       58.83085
O         86.45136       42.58954       59.28543
H         84.21406       44.01235       59.68617
H         85.59104       44.77130       60.58726
H         85.00066       45.50502       59.05349
N         86.70100       44.12164       57.66647
C         87.66591       43.36258       56.87721
C         88.92534       43.06767       57.68893
O         89.53922       43.98432       58.21515
C         87.97806       44.16280       55.59944
C         88.99326       43.56720       54.66633
O         89.96651       44.23663       54.36316
O         88.77355       42.39640       54.03275
H         86.40712       45.04956       57.32185
H         87.19059       42.41078       56.56931
H         88.33106       45.17521       55.89318
H         87.03270       44.28617       55.02391
N         89.36724       41.78136       57.79273
C         90.54545       41.33343       58.53514
C         91.63930       40.89509       57.55591
O         92.72572       40.57762       58.01586
C         90.14993       40.12272       59.48199
C         88.98499       40.49509       60.43733
C         91.33746       39.54765       60.29231
C         88.45652       39.31453       61.26987
H         88.85282       41.07629       57.26427
H         90.95005       42.17345       59.14102
H         89.79129       39.29680       58.83376
H         88.13120       40.84322       59.82675
H         89.29244       41.31423       61.12183
H         92.12132       39.11697       59.64553
H         91.77491       40.31912       60.95830
H         91.03200       38.67359       60.89808
H         87.56602       39.63263       61.85076
H         88.16471       38.47221       60.61054
H         89.20244       38.94824       62.00263
N         91.44904       40.83919       56.20081
C         92.40938       40.17867       55.31779
C         93.12260       41.11707       54.37172
O         94.15926       40.71871       53.85761
C         91.68312       39.10796       54.48133
C         90.93241       38.13043       55.33810
O         89.72295       38.02267       55.22185
O         91.58540       37.36837       56.23465
H         90.57247       41.17705       55.78039
H         93.19938       39.67764       55.91962
H         92.41432       38.55174       53.85682
H         90.96230       39.61581       53.79885
N         92.59259       42.31509       54.00117
C         93.20361       43.15923       52.98701
C         92.44419       43.11656       51.67353
O         92.95101       43.67877       50.71347
H         91.69130       42.60378       54.39171
H         94.22993       42.80201       52.75589
H         93.30211       44.19895       53.36552
N         91.25273       42.45645       51.53276
C         90.58245       42.27282       50.24547
C         89.31590       43.10878       50.09590
O         88.68462       43.02015       49.05144
C         90.34927       40.76313       49.98811
C         89.40111       40.05644       50.92723
O         89.19861       38.86193       50.78199
O         88.76396       40.70824       51.91394
H         90.80730       42.04070       52.35994
H         91.24702       42.62067       49.42508
H         91.33458       40.25118       50.04854
H         89.95983       40.63187       48.95600
N         88.92530       44.00509       51.04695
C         87.81886       44.93289       50.86582
C         86.43623       44.31307       50.85013
O         85.48967       45.07440       50.71534
H         89.48895       44.11595       51.89810
H         87.97945       45.50810       49.92826
H         87.82829       45.65753       51.70985
N         86.22043       42.97565       51.01676
C         84.88297       42.38993       51.10930
C         84.68016       41.82550       52.49728
O         85.61460       41.84806       53.27807
C         84.63915       41.39887       49.94624
C         85.61475       40.21626       49.77060
C         85.42773       39.07650       50.74201
N         85.05066       37.85693       50.28712
O         85.64472       39.23365       51.93250
H         87.02233       42.34859       51.14221
H         84.11231       43.18365       51.00206
H         84.73602       42.01147       49.02257
H         83.59633       41.01445       49.97163
H         86.66849       40.55983       49.78200
H         85.42770       39.81516       48.75127
H         84.86559       37.69259       49.28701
H         84.95120       37.06255       50.93024
N         83.45632       41.39233       52.91368
C         83.20697       40.95859       54.28735
C         82.52449       39.59570       54.27758
O         81.48795       39.45647       53.64497
C         82.35522       42.02946       55.03250
C         82.19803       41.67021       56.52122
C         83.00793       43.42368       54.94156
H         82.65903       41.45451       52.26337
H         84.16056       40.88374       54.85552
H         81.34754       42.09454       54.56669
H         81.58897       42.43898       57.04337
H         81.68823       40.69549       56.64300
H         83.19273       41.62059       57.01743
H         83.08071       43.76040       53.88634
H         82.39350       44.17494       55.48284
H         84.02805       43.41517       55.38449
N         83.02325       38.56366       55.02015
C         82.35877       37.26661       55.16070
C         81.61542       37.21835       56.47169
O         81.68293       38.16403       57.23395
C         83.39536       36.11810       55.12332
C         83.96559       35.85219       53.76133
N         84.89516       34.88120       53.60231
O         83.57381       36.48345       52.79351
H         83.84143       38.74512       55.61551
H         81.58412       37.12272       54.37595
H         82.92594       35.16354       55.43960
H         84.21576       36.34396       55.84032
H         85.22949       34.33766       54.41258
H         85.28475       34.67237       52.67148
N         80.83439       36.14498       56.77938
C         80.07506       36.05915       58.01761
C         81.00056       35.99598       59.21719
O         80.79074       36.74452       60.16132
C         79.16165       34.81995       58.02805
C         78.25609       34.88058       59.23592
C         77.27943       35.88927       59.32902
C         78.39777       33.96334       60.28764
C         76.46362       35.98236       60.45719
C         77.58375       34.06305       61.42073
C         76.61463       35.07463       61.50883
O         75.82792       35.18680       62.59744
H         80.75136       35.37993       56.09319
H         79.42289       36.95839       58.08273
H         79.79413       33.90466       58.03478
H         78.52829       34.78866       57.11511
H         77.15128       36.60768       58.52827
H         79.15060       33.18663       60.24051
H         75.71858       36.76626       60.51532
H         77.71198       33.35849       62.23197
H         75.90591       34.58653       63.35213
N         82.06282       35.13459       59.22961
C         83.01675       35.03688       60.33476
C         83.48145       36.41479       60.75927
O         83.53024       36.70795       61.94536
C         84.22586       34.12603       59.95944
C         85.13800       34.67921       58.84362
C         86.26165       33.73871       58.51494
O         86.38896       33.30607       57.38038
O         87.15783       33.39772       59.46094
H         82.22822       34.56146       58.38774
H         82.50871       34.56171       61.20229
H         83.83603       33.13199       59.64995
H         84.85174       33.97912       60.86739
H         85.60738       35.62223       59.18361
H         84.54339       34.87282       57.92523
N         83.79205       37.32541       59.80414
C         84.27168       38.66682       60.07651
C         83.18616       39.48653       60.75600
O         83.41288       39.97252       61.85499
C         84.81906       39.29116       58.76694
C         85.90810       38.34988       58.19094
C         86.73402       38.92471       57.10231
O         87.92996       39.02752       57.28057
O         86.24366       39.19749       55.88605
H         83.68489       37.03214       58.82394
H         85.14569       38.59942       60.76449
H         85.26727       40.27421       59.02241
H         84.01933       39.45187       58.01317
H         85.48111       37.41486       57.78940
H         86.59841       38.08601       59.01796
N         81.95946       39.62585       60.18214
C         80.83959       40.30769       60.79781
H         80.00833       39.58252       60.93932
H         81.09598       40.74021       61.78641
H         80.48728       41.11932       60.12811
H         81.78770       39.19338       59.27347
Ca        87.46348       40.71950       54.77899
O         87.31841       37.04009       54.05942
H         87.11391       36.31184       54.69856
H         86.53074       37.08293       53.46279

Ca 1.0



