%chk=holoCaM.loop4.water3.frame454.chk
%nprocshared=20
%mem=10GB
%nosave
#b3lyp/svp scf=(tight,noincore,xqc) Test 
#IOP(5/87=12) Density=Current Pop=(MK,readradii) iop(6/33=2) iop(6/42=6)

holoCaM.loop4.water3.frame454 

   -3  1 
C         30.72552       60.09261       54.65478
C         31.36416       59.69727       55.95154
O         30.66512       59.62766       56.95101
H         29.63843       60.28097       54.79651
H         31.19941       61.01726       54.26670
H         30.84745       59.27277       53.91676
N         32.70231       59.43146       56.01215
C         33.37271       59.02054       57.24400
C         34.89001       58.98034       57.04202
O         35.35677       58.28526       56.15044
C         32.86127       57.63230       57.70300
C         33.35620       57.24986       59.06863
O         33.02396       56.05351       59.58790
O         34.01957       58.02758       59.73166
H         33.25769       59.54698       55.15021
H         33.12821       59.77123       58.02857
H         33.17121       56.86307       56.96416
H         31.75534       57.61710       57.76706
N         35.71136       59.71892       57.84649
C         37.16169       59.84468       57.67732
C         37.93636       59.31031       58.90497
O         39.15406       59.23146       58.83150
C         37.47126       61.37090       57.43802
C         36.63854       61.92869       56.24667
C         38.97031       61.66776       57.22089
C         36.68985       63.45691       56.11849
H         35.27710       60.27079       58.59342
H         37.48734       59.25299       56.79376
H         37.14665       61.91415       58.35497
H         35.56909       61.68269       56.39339
H         36.96244       61.45708       55.29437
H         39.15215       62.75310       57.10335
H         39.58009       61.39093       58.09922
H         39.34714       61.13772       56.32124
H         37.70437       63.82117       55.86611
H         36.00860       63.78311       55.30461
H         36.35341       63.93430       57.06441
N         37.31746       58.96875       60.07556
C         38.04912       58.75195       61.33709
C         37.41083       57.72348       62.29931
O         38.01715       57.45848       63.32819
C         38.22705       60.10562       62.08055
C         36.91595       60.75982       62.42563
O         35.77931       60.25084       61.91866
O         36.88776       61.74622       63.14244
H         36.30454       59.07735       60.10599
H         39.06959       58.37388       61.10614
H         38.82075       60.81738       61.46715
H         38.79461       59.91909       63.01913
N         36.22902       57.08985       62.04439
C         35.66535       56.03109       62.88230
C         35.06632       56.41569       64.24051
O         34.60033       55.50594       64.91144
H         35.74992       57.27397       61.16069
H         36.44348       55.25204       63.03142
H         34.83502       55.55904       62.31336
N         35.01330       57.69124       64.72337
C         34.43320       58.04146       66.04154
C         32.90087       57.85758       66.16883
O         32.38096       58.13814       67.24026
C         34.79105       59.50673       66.39961
C         34.23658       60.48218       65.40787
O         33.46649       60.02278       64.40797
O         34.55085       61.65784       65.46175
H         35.44949       58.43277       64.15644
H         34.92158       57.40596       66.81287
H         35.89872       59.60143       66.39072
H         34.43313       59.77040       67.41850
N         32.11581       57.40123       65.14979
C         30.67030       57.19760       65.25554
C         29.80055       58.45300       65.14697
O         28.58741       58.29858       65.16435
H         32.56357       57.09769       64.28169
H         30.43970       56.63445       66.18604
H         30.36001       56.55517       64.40304
N         30.31901       59.70550       64.99876
C         29.53411       60.93125       64.81520
C         29.89582       61.59567       63.48340
O         30.70204       61.03483       62.75235
C         29.81637       61.89524       65.98412
C         29.46884       61.26860       67.34460
C         29.67993       62.21710       68.50015
N         29.42805       61.80098       69.76185
O         30.07430       63.35914       68.31015
H         31.32929       59.81191       65.01826
H         28.44407       60.70831       64.80099
H         29.20131       62.81159       65.85931
H         30.89083       62.18487       65.97646
H         30.10528       60.37297       67.51079
H         28.40281       60.95350       67.34137
H         29.09755       60.84154       69.94171
H         29.56523       62.43780       70.56057
N         29.34751       62.79410       63.09917
C         29.66124       63.44466       61.82383
C         30.38658       64.77181       62.06260
O         29.79202       65.69497       62.60265
C         28.36591       63.64535       60.98090
C         28.66658       64.28980       59.61677
C         27.63863       62.31139       60.74550
H         28.67770       63.26648       63.72474
H         30.33180       62.79322       61.23555
H         27.67501       64.31769       61.53701
H         29.33737       63.63903       59.01759
H         27.72571       64.44473       59.04636
H         29.14131       65.28252       59.74320
H         28.28684       61.60373       60.18523
H         27.34573       61.84511       61.70896
H         26.70894       62.48113       60.15978
N         31.69095       64.92344       61.67761
C         32.46341       66.16461       61.81814
C         31.99247       67.21532       60.82545
O         31.16712       66.92364       59.97847
C         33.96531       65.84927       61.55569
C         34.96940       66.95322       61.75592
N         35.09385       67.57165       62.95201
O         35.71607       67.25903       60.83968
H         32.17053       64.09875       61.29169
H         32.34841       66.53443       62.86056
H         34.07399       65.43359       60.53178
H         34.28170       65.09095       62.26645
H         34.48837       67.31798       63.74506
H         35.80609       68.30342       63.08520
N         32.51001       68.47122       60.86656
C         32.24028       69.50312       59.87159
C         32.75286       69.09340       58.49231
O         31.97428       69.14561       57.55006
C         32.75704       70.88071       60.36926
C         34.20055       70.95592       60.82813
C         34.48721       70.96689       62.20764
C         35.26246       71.04937       59.91606
C         35.80435       71.04251       62.66296
C         36.58363       71.13603       60.37667
C         36.85776       71.12482       61.75157
O         38.12454       71.19544       62.20815
H         33.13009       68.70161       61.65079
H         31.13837       69.64366       59.78428
H         32.12170       71.10847       61.25400
H         32.54493       71.68561       59.63316
H         33.68934       70.90095       62.93710
H         35.07004       71.06622       58.85132
H         36.00458       71.03386       63.72730
H         37.39588       71.21112       59.66602
H         38.88539       71.25082       61.61293
N         34.02375       68.63154       58.29712
C         34.53350       68.22702       56.98186
C         33.70197       67.11612       56.35984
O         33.68105       67.00822       55.14138
C         36.00785       67.74019       57.05021
C         37.02148       68.79251       57.53695
C         37.18735       69.98280       56.62487
O         36.58400       70.06764       55.56694
O         38.04359       70.96168       56.97213
H         34.63857       68.55970       59.11451
H         34.46009       69.10584       56.30973
H         36.33948       67.38933       56.04740
H         36.05674       66.86831       57.74122
H         38.01650       68.30629       57.62851
H         36.73518       69.13583       58.54507
N         33.05432       66.20745       57.13570
C         32.27323       65.10404       56.58844
C         30.96103       65.62987       56.03800
O         30.68605       65.43592       54.86250
C         32.04620       64.03527       57.67674
C         33.40043       63.46003       58.13719
C         33.28468       62.48385       59.26369
O         34.29650       62.05831       59.79207
O         32.08653       62.09343       59.72459
H         33.15186       66.28404       58.15869
H         32.84622       64.60085       55.77565
H         31.41757       63.20961       57.27428
H         31.52460       64.49299       58.54428
H         34.05515       64.27847       58.49294
H         33.90168       62.96560       57.28177
N         30.11101       66.32645       56.84301
C         28.84725       66.88523       56.41240
H         28.03151       66.47095       57.04184
H         28.87242       67.98764       56.54819
H         28.62546       66.66332       55.34871
H         30.37543       66.48760       57.81869
Ca        33.65485       60.66506       62.32632
O         33.83055       63.06801       63.21345
H         34.77053       63.04292       62.89821
H         33.84447       63.63534       64.02075
O         32.23802       57.99693       62.02554
H         32.96470       57.32516       62.03846
H         31.40620       57.46388       62.08705
O         30.85427       59.42096       60.07095
H         30.57021       60.12483       59.43898
H         30.08895       59.32966       60.69132

Ca 1.0



