%chk=holoCaM-CaMKII.loop2.water2.frame486.chk
%nprocshared=20
%mem=10GB
%nosave
#b3lyp/svp scf=(tight,noincore,xqc) Test 
#IOP(5/87=12) Density=Current Pop=(MK,readradii) iop(6/33=2) iop(6/42=6)

holoCaM-CaMKII.loop2.water2.frame486 

   -2  1 
C         74.14179       87.05501      102.12692
C         73.51646       87.57187      103.39071
O         74.21704       88.07984      104.25303
H         75.24369       87.18719      102.13809
H         73.90193       85.97950      101.99435
H         73.72870       87.62128      101.26319
N         72.16858       87.49776      103.54021
C         71.43519       88.08641      104.65488
C         71.78862       87.44075      105.99188
O         71.72764       86.22359      106.09732
C         69.92043       87.93622      104.39492
C         69.07772       88.85009      105.23470
O         69.63775       89.81957      105.98291
O         67.86262       88.77205      105.16689
H         71.63269       87.05709      102.77544
H         71.67136       89.17124      104.66789
H         69.62439       86.87612      104.55257
H         69.68569       88.20597      103.34380
N         72.10572       88.21205      107.07253
C         72.41317       87.68071      108.39967
C         71.38387       88.09974      109.45425
O         71.57369       87.74943      110.61157
C         73.80227       88.18742      108.81081
H         72.10815       89.23540      106.95766
H         72.43990       86.56965      108.38587
H         73.80501       89.29770      108.87710
H         74.09751       87.77726      109.80036
H         74.56142       87.87483      108.06315
N         70.29540       88.86973      109.14968
C         69.45708       89.49444      110.17269
C         67.99534       89.73200      109.76100
O         67.24180       90.19721      110.60548
C         70.12096       90.83236      110.56205
C         70.37972       91.69581      109.35424
O         71.64010       92.03954      109.02634
O         69.45752       92.04996      108.64262
H         70.21210       89.21481      108.19360
H         69.41508       88.84379      111.07446
H         71.09886       90.61626      111.04343
H         69.49475       91.38156      111.29698
N         67.51413       89.47001      108.51192
C         66.13470       89.70894      108.11222
C         65.70727       91.15572      108.26598
O         64.72574       91.39487      108.95535
H         68.12948       89.06906      107.80052
H         65.46224       89.05593      108.71135
H         66.01225       89.42470      107.04488
N         66.37982       92.17112      107.64624
C         65.95743       93.57305      107.72384
C         65.66302       94.17643      106.34757
O         65.41795       95.37281      106.27318
C         66.95941       94.41270      108.54829
C         68.33384       94.63554      107.97895
N         69.21032       95.39337      108.67776
O         68.66641       94.15096      106.90881
H         67.22302       91.93974      107.10059
H         65.00940       93.65648      108.29848
H         67.07217       93.93574      109.54696
H         66.51306       95.41859      108.70595
H         68.94274       95.80676      109.58281
H         70.15464       95.57777      108.32322
N         65.58943       93.40128      105.22547
C         65.21309       93.90778      103.91177
C         66.27836       94.71572      103.19124
O         66.01457       95.11093      102.06456
H         65.69932       92.38268      105.31134
H         64.27197       94.49311      103.99571
H         65.00518       93.03430      103.25603
N         67.49933       94.97977      103.73551
C         68.56831       95.67829      103.02277
C         69.81457       94.82169      102.94371
O         70.02770       93.98027      103.79976
C         68.92862       97.01124      103.73698
C         67.90116       98.10055      103.44102
O         69.01841       96.83516      105.12988
H         67.69940       94.65737      104.68896
H         68.27687       95.90398      101.97325
H         69.89366       97.41365      103.34817
H         69.83678       96.30604      105.31116
H         68.19309       99.03918      103.96038
H         67.88583       98.30779      102.34849
H         66.88677       97.79985      103.77228
N         70.75753       95.10316      102.00104
C         72.12758       94.62126      102.08329
C         72.86906       95.63906      102.92634
O         72.88902       96.81303      102.58099
C         72.73924       94.40409      100.65758
C         72.14415       93.10754      100.04150
C         74.27859       94.31794      100.70705
C         72.61148       92.79473       98.61666
H         70.56750       95.88356      101.35282
H         72.18098       93.64659      102.61888
H         72.49123       95.28062      100.01899
H         71.03642       93.18401      100.02596
H         72.42452       92.24133      100.67871
H         74.71299       94.21683       99.69270
H         74.70734       95.25779      101.11000
H         74.60721       93.46501      101.33269
H         73.70571       92.61860       98.57043
H         72.12327       91.85863       98.27034
H         72.33630       93.61878       97.92748
N         73.50990       95.23645      104.05923
C         74.32282       96.11599      104.87705
C         75.73671       96.06395      104.33683
O         75.97363       95.32633      103.39288
C         74.28236       95.68871      106.36703
C         72.93492       95.84570      107.04150
O         71.89948       95.00679      106.81210
O         72.80168       96.70897      107.89440
H         73.60171       94.22777      104.22419
H         73.96794       97.16707      104.79066
H         74.98938       96.35147      106.91020
H         74.64276       94.64417      106.49670
N         76.73119       96.84613      104.83695
C         78.07239       96.80795      104.26866
C         78.72467       95.43452      104.46541
O         79.22618       94.91139      103.48075
C         78.96748       97.94891      104.79370
C         80.21358       98.07868      103.94855
C         80.11714       98.52044      102.61434
C         81.47571       97.76412      104.47563
C         81.26342       98.64642      101.82612
C         82.61983       97.88277      103.67935
C         82.51419       98.32569      102.35747
H         76.51839       97.50985      105.59721
H         77.96055       97.00125      103.17694
H         79.23226       97.78662      105.85175
H         78.42554       98.91826      104.73883
H         79.15554       98.77705      102.18612
H         81.57245       97.41613      105.49606
H         81.18109       98.99318      100.80359
H         83.58955       97.63114      104.08727
H         83.40097       98.42107      101.74456
N         78.73663       94.75870      105.66934
C         79.34396       93.43768      105.87428
C         78.82675       92.30567      104.98848
O         79.34232       91.20126      105.09256
C         78.98427       93.09573      107.32802
C         78.93715       94.45637      107.97289
C         78.19605       95.26572      106.91632
H         80.44052       93.55924      105.73477
H         77.93827       92.70641      107.36863
H         79.65249       92.35166      107.81115
H         78.47451       94.48743      108.98226
H         79.98326       94.83354      108.04118
H         77.10448       95.06438      106.93811
H         78.39417       96.33111      107.11611
N         77.79829       92.49674      104.12144
C         77.21247       91.47550      103.26789
C         77.55409       91.80573      101.82417
O         78.03785       90.92963      101.12140
C         75.69513       91.40554      103.55798
C         75.47763       91.03049      105.04019
C         74.06269       91.11034      105.51372
O         73.84208       91.02470      106.71035
O         73.05409       91.42919      104.69080
H         77.35373       93.41601      104.07898
H         77.63404       90.46800      103.48382
H         75.20199       90.65433      102.90304
H         75.24004       92.40052      103.35793
H         76.02180       91.76585      105.66954
H         75.88453       90.01947      105.25004
N         77.43719       93.07478      101.34064
C         77.89086       93.45149      100.02088
H         78.96987       93.20624       99.90980
H         77.30038       92.92243       99.24688
H         77.77415       94.54884       99.88274
H         77.07398       93.82160      101.93874
Ca        71.95968       93.18040      105.52168
O         68.25048       91.90236      104.56962
H         67.51594       91.24251      104.54020
H         68.50944       92.00360      103.62173
O         70.72670       90.90311      102.89913
H         70.20855       90.36723      102.24846
H         71.60870       91.02785      102.47106

Ca 1.0



