%chk=holoCaM-CaMKII.loop4.water1.frame496.chk
%nprocshared=20
%mem=10GB
%nosave
#b3lyp/svp scf=(tight,noincore,xqc) Test 
#IOP(5/87=12) Density=Current Pop=(MK,readradii) iop(6/33=2) iop(6/42=6)

holoCaM-CaMKII.loop4.water1.frame496 

   -3  1 
C         22.68697       87.51960       94.34195
C         23.79188       87.24086       93.37294
O         24.04340       86.08011       93.08376
H         21.73627       87.10850       93.94351
H         22.92305       87.03517       95.31166
H         22.56224       88.61015       94.50851
N         24.49653       88.26271       92.81599
C         25.56658       88.03394       91.86050
C         26.71353       87.29075       92.52828
O         27.14813       87.73298       93.58336
C         26.06196       89.36885       91.27599
C         26.86278       89.13029       90.03460
O         27.26615       90.07844       89.38535
O         26.99848       87.87788       89.55511
H         24.24292       89.23326       93.05911
H         25.13173       87.44624       91.02275
H         26.63141       89.95581       92.02926
H         25.18540       89.97246       90.95231
N         27.25971       86.16519       91.97514
C         28.24884       85.34569       92.66812
C         29.67257       85.56057       92.16076
O         30.58199       85.10736       92.84215
C         27.83989       83.83444       92.63851
C         28.07613       83.19547       91.23799
C         26.37697       83.66100       93.09673
C         27.76772       81.69692       91.17815
H         26.94272       85.85742       91.05219
H         28.26781       85.66336       93.73412
H         28.49396       83.29859       93.36147
H         29.14923       83.30403       90.97237
H         27.48001       83.71163       90.45843
H         26.11085       82.59020       93.20282
H         26.21909       84.13997       94.08505
H         25.67859       84.11379       92.36016
H         28.04023       81.30511       90.17507
H         28.35604       81.14871       91.94398
H         26.68774       81.49811       91.32974
N         29.95342       86.19155       90.97706
C         31.32223       86.38486       90.48372
C         31.64489       87.84417       90.13067
O         32.77043       88.10542       89.72914
C         31.61164       85.41036       89.32181
C         30.82713       85.63637       88.06214
O         30.99179       84.88459       87.11545
O         29.96716       86.66193       87.94789
H         29.17346       86.48985       90.37602
H         32.04737       86.09714       91.27656
H         31.40776       84.37746       89.68267
H         32.69141       85.46863       89.06353
N         30.74378       88.85369       90.31388
C         31.06156       90.26615       90.14405
C         31.21889       90.73732       88.70972
O         32.23966       91.32967       88.39083
H         29.81427       88.63918       90.69970
H         31.96424       90.51628       90.74498
H         30.21939       90.85839       90.56216
N         30.19918       90.58631       87.81761
C         30.15431       91.21011       86.48889
C         28.89634       92.08351       86.33162
O         28.63422       92.54488       85.22987
C         30.31264       90.13561       85.38045
C         29.26017       89.07387       85.36174
O         29.41811       88.05460       84.71052
O         28.16762       89.22129       86.10746
H         29.38763       90.03047       88.11721
H         31.02589       91.88522       86.34327
H         31.28418       89.63285       85.57557
H         30.36494       90.60475       84.37479
N         28.11624       92.41537       87.40790
C         26.96810       93.31149       87.34812
C         25.68799       92.69606       86.81680
O         24.68695       93.40061       86.83442
H         28.40184       92.11758       88.34991
H         27.23136       94.23332       86.78572
H         26.72680       93.62142       88.38926
N         25.60917       91.41344       86.35739
C         24.35518       90.79594       85.92622
C         24.06732       89.53562       86.71622
O         24.92535       89.09672       87.47174
C         24.36567       90.58738       84.39623
C         25.46609       89.69477       83.78753
C         25.22656       88.21635       83.96561
N         24.88483       87.45767       82.89954
O         25.34673       87.69156       85.06056
H         26.46162       90.84765       86.31816
H         23.50842       91.48537       86.13602
H         24.51120       91.60137       83.96328
H         23.37468       90.22413       84.04643
H         26.48125       89.97979       84.13266
H         25.44047       89.90004       82.69603
H         24.77039       87.86901       81.96224
H         24.71538       86.45392       83.01187
N         22.84870       88.92512       86.63705
C         22.51875       87.71931       87.39012
C         21.87269       86.70355       86.45106
O         20.74989       86.92628       86.01706
C         21.59281       88.08537       88.59225
C         21.24446       86.86254       89.45127
C         22.25466       89.13716       89.50177
H         22.10903       89.36473       86.06672
H         23.44669       87.27425       87.81543
H         20.64584       88.51774       88.20029
H         20.56555       87.15561       90.28118
H         20.72240       86.09631       88.84825
H         22.16334       86.42831       89.89612
H         23.20823       88.74785       89.91777
H         22.46339       90.07330       88.94455
H         21.58183       89.39926       90.34616
N         22.53271       85.56708       86.08327
C         21.93605       84.51273       85.25588
C         20.82166       83.80293       86.00432
O         20.57329       84.11109       87.15650
C         23.00689       83.45793       84.86988
C         23.95478       83.97039       83.82078
N         25.28349       84.05543       84.05486
O         23.51290       84.28457       82.72512
H         23.50173       85.45155       86.40467
H         21.50740       84.95300       84.32847
H         22.53977       82.55760       84.41994
H         23.54355       83.12800       85.78612
H         25.67728       83.77831       84.96148
H         25.92383       84.39499       83.32162
N         20.10915       82.81317       85.39503
C         19.11895       82.00001       86.09155
C         19.79842       81.16159       87.16680
O         19.33519       81.15603       88.29900
C         18.38215       81.08209       85.09316
C         17.25936       80.31985       85.76118
C         16.18264       81.01003       86.34878
C         17.27457       78.91636       85.80202
C         15.14750       80.30942       86.97231
C         16.23581       78.21704       86.42554
C         15.16934       78.91262       87.01445
O         14.16262       78.25193       87.62075
H         20.29285       82.61689       84.39907
H         18.36059       82.67385       86.54643
H         19.11307       80.38596       84.62534
H         17.93890       81.70001       84.28196
H         16.14068       82.09155       86.32604
H         18.09043       78.36253       85.35503
H         14.32727       80.85445       87.42303
H         16.26149       77.13522       86.45115
H         14.13854       77.28595       87.67281
N         20.93826       80.46031       86.87733
C         21.67464       79.63110       87.84151
C         22.17765       80.39049       89.07283
O         22.70817       79.75537       89.97354
C         22.88235       78.95450       87.14079
C         23.98904       79.96514       86.77155
C         25.09139       79.32901       85.98083
O         25.36719       79.75137       84.86900
O         25.79888       78.30805       86.50007
H         21.28873       80.51144       85.90869
H         20.97531       78.83666       88.18376
H         22.51516       78.43948       86.22604
H         23.32156       78.18267       87.81092
H         24.43337       80.38393       87.69839
H         23.55987       80.79878       86.18110
N         22.05244       81.74088       89.17566
C         22.49431       82.53732       90.30564
C         21.27186       82.96111       91.09506
O         21.20808       82.66951       92.28104
C         23.27591       83.75735       89.78095
C         24.58536       83.35387       89.09448
C         25.25407       84.54834       88.48596
O         25.48606       85.64192       89.22256
O         25.57563       84.54271       87.31182
H         21.61099       82.26107       88.41474
H         23.15139       81.95368       90.98992
H         23.51816       84.43618       90.62852
H         22.64249       84.30921       89.05381
H         24.39850       82.61227       88.29164
H         25.25531       82.89966       89.85176
N         20.23971       83.61122       90.48908
C         19.01422       83.98825       91.15891
H         18.16181       83.47180       90.66752
H         19.01730       83.71486       92.23389
H         18.86845       85.08413       91.06682
H         20.30171       83.82949       89.49089
Ca        27.43906       87.61887       87.41015
O         28.07809       84.94334       85.75040
H         28.98699       85.01533       85.36650
H         27.93958       83.97087       85.87488

Ca 1.0



