%chk=holoCaM-CaMKII.loop1.water2.frame400.chk
%nprocshared=20
%mem=10GB
%nosave
#b3lyp/svp scf=(tight,noincore,xqc) Test 
#IOP(5/87=12) Density=Current Pop=(MK,readradii) iop(6/33=2) iop(6/42=6)

holoCaM-CaMKII.loop1.water2.frame400 

   0  1 
C         52.68739       76.67130       49.71230
C         53.23943       75.77714       48.64063
O         52.88794       75.94957       47.48333
H         51.58355       76.57021       49.75168
H         53.10116       76.41180       50.71059
H         52.95507       77.72521       49.48872
N         54.12599       74.79636       48.95831
C         54.74423       73.91945       47.97127
C         53.67975       73.08988       47.24615
O         52.84268       72.48416       47.89995
C         55.79542       73.03291       48.67662
C         56.74457       72.33422       47.74565
O         56.68785       72.49224       46.53741
O         57.72228       71.57513       48.26797
H         54.39607       74.69085       49.94940
H         55.30005       74.56020       47.24903
H         55.29042       72.29488       49.33620
H         56.43959       73.68255       49.30988
N         53.67661       73.01690       45.88447
C         52.68535       72.31514       45.06963
C         53.31080       71.05196       44.50179
O         52.89853       69.96494       44.88254
C         52.23389       73.24605       43.90815
C         51.29057       74.38612       44.31382
C         49.82933       73.90475       44.32173
C         48.82452       75.02764       44.61600
N         48.86259       75.44052       46.01750
H         54.45999       73.45256       45.39160
H         51.81536       71.99583       45.68524
H         51.75850       72.66955       43.08393
H         53.14610       73.71044       43.47503
H         51.35075       75.17048       43.52618
H         51.62243       74.84066       45.27010
H         49.67916       73.06328       45.02954
H         49.60373       73.53572       43.29526
H         47.80353       74.64713       44.39067
H         49.01333       75.89874       43.94796
H         48.14297       76.18330       46.17005
H         48.63257       74.62278       46.62832
H         49.80061       75.82189       46.27110
N         54.30029       71.11857       43.56845
C         54.95824       69.94191       42.99792
C         55.79513       69.15004       44.01310
O         56.26352       68.07758       43.65628
C         55.85317       70.34296       41.79808
C         56.91026       71.35929       42.15362
O         56.88371       71.96992       43.35457
O         57.76949       71.65673       41.34012
H         54.55717       72.04971       43.21806
H         54.16647       69.26336       42.60842
H         55.22932       70.76429       40.98052
H         56.34418       69.42498       41.40676
N         56.02561       69.59366       45.28182
C         56.74933       68.82238       46.28129
C         58.21433       68.58736       45.95575
O         58.61420       67.43467       45.87779
H         55.63187       70.49233       45.58332
H         56.22850       67.85028       46.42566
H         56.70760       69.36067       47.25127
N         59.08598       69.63141       45.82496
C         60.53942       69.46836       45.67561
C         61.29438       70.10566       46.84465
O         62.49544       70.31276       46.73864
C         61.02497       69.98230       44.29948
C         60.83097       71.44642       44.03523
O         61.04074       71.88327       42.91513
O         60.31577       72.25841       44.96868
H         58.70538       70.58685       45.88532
H         60.81532       68.39115       45.67916
H         60.45659       69.42090       43.52500
H         62.10230       69.74592       44.16484
N         60.66603       70.35059       48.03123
C         61.32882       70.86486       49.22022
C         61.61119       72.35603       49.21243
O         62.07204       72.83657       50.23944
H         59.68567       70.06240       48.14413
H         62.25454       70.28302       49.42202
H         60.64330       70.70134       50.08013
N         61.36061       73.16141       48.13924
C         61.55278       74.61276       48.16523
C         60.28657       75.34948       47.75370
O         59.32953       74.72957       47.30442
C         62.74830       75.02974       47.27199
C         64.09366       74.64374       47.90210
O         62.62573       74.50348       45.97331
H         61.01612       72.74029       47.26847
H         61.76895       74.95469       49.20182
H         62.77613       76.13760       47.18864
H         62.88429       73.54455       46.00124
H         64.17293       73.54653       48.04559
H         64.92457       74.98714       47.24991
H         64.20069       75.14430       48.88924
N         60.21275       76.70027       47.93995
C         59.04764       77.52034       47.62187
C         59.49341       78.65696       46.70584
O         60.52240       79.26509       46.97427
C         58.39583       78.09628       48.91781
C         58.21923       76.99966       50.00313
C         57.03081       78.73387       48.56557
C         57.67275       77.53657       51.32967
H         61.01813       77.17441       48.37962
H         58.26811       76.90081       47.12422
H         59.07208       78.87269       49.33976
H         59.21427       76.56405       50.23619
H         57.56005       76.18414       49.63364
H         56.33219       77.95908       48.17632
H         56.56153       79.21835       49.44343
H         57.14049       79.52161       47.79649
H         56.63360       77.90696       51.22469
H         57.66068       76.72080       52.08246
H         58.32060       78.35597       51.70922
N         58.73514       79.04355       45.64616
C         59.09689       80.11621       44.72213
C         58.20490       81.32509       44.95322
O         57.36123       81.28251       45.83342
C         58.96676       79.60663       43.26097
C         59.85759       78.39021       43.00278
O         57.62999       79.26591       42.99883
H         57.82868       78.58633       45.51048
H         60.14388       80.44989       44.89491
H         59.28181       80.42078       42.57072
H         57.53517       79.17904       42.01432
H         59.75870       78.06789       41.94416
H         60.92086       78.63599       43.20308
H         59.54348       77.54795       43.64971
N         58.34192       82.45283       44.20344
C         57.45506       83.61014       44.32857
C         56.02313       83.22206       43.98490
O         55.11789       83.51172       44.75269
C         57.90385       84.77202       43.40064
C         59.25948       85.35158       43.81038
O         57.97047       84.34406       42.06202
H         59.09322       82.47792       43.49779
H         57.48203       83.99944       45.37206
H         57.15396       85.59364       43.51225
H         57.53436       85.03817       41.50227
H         59.51509       86.20253       43.14346
H         59.21465       85.72756       44.85452
H         60.06405       84.59185       43.73320
N         55.76216       82.56846       42.82075
C         54.42664       82.21689       42.34145
C         53.70645       81.31457       43.32629
O         52.59041       81.63457       43.71196
C         54.53079       81.56565       40.94203
C         55.07754       82.58778       39.92178
C         55.22385       82.01348       38.51178
C         55.76089       83.09972       37.56411
N         55.91114       82.59324       36.20212
H         56.57286       82.30533       42.24309
H         53.81891       83.14212       42.22191
H         53.51986       81.24515       40.60731
H         55.18735       80.66793       40.98734
H         56.07556       82.95658       40.23486
H         54.38455       83.45710       39.88684
H         54.23558       81.65683       38.14985
H         55.93289       81.15668       38.53224
H         56.74955       83.45875       37.93030
H         55.05972       83.96435       37.55575
H         56.59013       81.79820       36.18722
H         54.98478       82.27924       35.83263
H         56.27568       83.36168       35.59328
N         54.31170       80.20138       43.82099
C         53.71413       79.33163       44.83685
C         53.30465       80.15416       46.05143
O         52.16488       80.04758       46.48162
C         54.69963       78.20264       45.22694
C         54.96911       77.26504       44.02927
C         55.95486       76.17232       44.33000
O         55.64063       75.00963       44.16274
O         57.21453       76.45833       44.69558
H         55.26904       80.00796       43.49856
H         52.79826       78.84578       44.43150
H         54.26829       77.60018       46.05358
H         55.63872       78.65816       45.59529
H         55.37541       77.83244       43.17141
H         54.00512       76.80840       43.71237
N         54.16229       81.06054       46.59336
C         53.82147       81.95930       47.67735
H         52.79730       81.78607       48.06690
H         54.54872       81.83408       48.50551
H         53.88010       83.00762       47.31104
H         55.09036       81.16217       46.17813
Ca        58.50649       73.23735       44.17738
O         60.56207       75.21123       43.97216
H         61.10180       75.88334       44.45795
H         61.10445       74.97742       43.17808
O         57.88083       75.23835       41.85684
H         57.52051       74.35046       41.60899
H         58.63177       75.38611       41.22940

Ca 1.0



