%chk=holoCaM.loop1.water2.frame225.chk
%nprocshared=20
%mem=10GB
%nosave
#b3lyp/svp scf=(tight,noincore,xqc) Test 
#IOP(5/87=12) Density=Current Pop=(MK,readradii) iop(6/33=2) iop(6/42=6)

holoCaM.loop1.water2.frame225 

   0  1 
C         40.08461       80.28757       40.62556
C         39.10951       81.01883       41.49996
O         39.49841       81.97577       42.15428
H         40.91631       79.89857       41.24926
H         39.60244       79.42740       40.11344
H         40.48972       80.97617       39.85617
N         37.81103       80.61825       41.56067
C         36.82205       81.25582       42.41805
C         37.20667       81.04033       43.87179
O         37.44855       79.90267       44.25296
C         35.43436       80.65366       42.13644
C         34.31717       81.38527       42.82023
O         33.17857       80.99063       42.66377
O         34.53866       82.48708       43.56234
H         37.51550       79.82370       40.97141
H         36.76921       82.33925       42.16369
H         35.41942       79.58342       42.43888
H         35.22948       80.71302       41.04515
N         37.25935       82.08388       44.74492
C         37.67652       81.93847       46.13315
C         36.45937       81.90458       47.04116
O         36.32472       80.96987       47.81831
C         38.63021       83.09725       46.51026
C         39.36293       82.87598       47.84664
C         40.48291       81.82343       47.70669
C         41.24917       81.56475       49.01129
N         40.42478       80.87025       50.00173
H         36.96834       83.01503       44.41697
H         38.22003       80.98022       46.25211
H         38.03467       84.03140       46.57482
H         39.39547       83.24841       45.71724
H         38.62505       82.61256       48.63185
H         39.84893       83.83211       48.14126
H         41.20874       82.20740       46.95567
H         40.09794       80.85226       47.33878
H         41.63646       82.51995       49.42970
H         42.12269       80.91873       48.76993
H         41.01089       80.65580       50.84024
H         39.62001       81.46326       50.30197
H         40.07277       79.96886       49.60322
N         35.51254       82.88212       46.96829
C         34.31141       82.91514       47.80044
C         33.48727       81.64764       47.64382
O         33.22923       80.96679       48.62611
C         33.40718       84.09648       47.37887
C         34.03716       85.44048       47.53935
O         34.28978       85.86915       48.65322
O         34.29020       86.20635       46.46002
H         35.64812       83.63148       46.27353
H         34.60500       83.03140       48.86773
H         32.46166       84.08942       47.96485
H         33.14551       83.98007       46.30997
N         32.99006       81.32377       46.42231
C         32.07414       80.23308       46.15195
C         30.74572       80.80113       45.69275
O         29.71694       80.44434       46.24807
H         33.25175       81.91900       45.62924
H         31.91489       79.58754       47.04346
H         32.51215       79.60480       45.34728
N         30.70881       81.72826       44.69454
C         29.50342       82.34618       44.16109
C         29.40969       82.12615       42.64734
O         28.56709       82.74371       42.01142
C         29.47163       83.84435       44.55921
C         30.70534       84.63368       44.21988
O         31.37335       85.28151       45.19129
O         31.08884       84.72810       43.07101
H         31.59460       82.04491       44.28057
H         28.58381       81.90643       44.60566
H         29.33761       83.90496       45.66175
H         28.58835       84.33012       44.09237
N         30.19727       81.20523       42.01350
C         30.13314       80.90781       40.59000
C         30.71322       81.97675       39.67962
O         30.70529       81.74792       38.47707
H         30.81943       80.60784       42.57047
H         29.08086       80.68791       40.30797
H         30.72940       79.98797       40.40276
N         31.22764       83.15219       40.14398
C         31.78478       84.19191       39.27814
C         33.19527       84.59264       39.70170
O         33.68577       84.14190       40.73063
C         30.83493       85.41912       39.23526
C         29.56784       85.12878       38.41660
O         30.50524       85.86095       40.52850
H         31.20751       83.33565       41.15189
H         31.88806       83.81273       38.23708
H         31.33368       86.25925       38.70812
H         29.79502       85.26467       40.88702
H         28.99232       84.28307       38.84720
H         28.92131       86.03170       38.39590
H         29.84754       84.87788       37.37067
N         33.92461       85.41079       38.88743
C         35.30658       85.82403       39.11784
C         35.39472       87.34812       39.09445
O         34.95343       87.96316       38.13187
C         36.22977       85.17392       38.03421
C         36.23849       83.63098       38.23433
C         37.66402       85.73651       38.09471
C         37.15352       82.86280       37.27714
H         33.49015       85.72395       38.00408
H         35.67428       85.46635       40.10628
H         35.83304       85.41757       37.02313
H         35.20634       83.24437       38.09755
H         36.56351       83.39017       39.27140
H         38.14007       85.49407       39.06146
H         38.28883       85.32878       37.27555
H         37.66593       86.83262       37.94071
H         36.88107       83.07041       36.22207
H         38.21966       83.12100       37.44709
H         37.05370       81.77383       37.47043
N         36.04332       88.00864       40.09654
C         36.29143       89.45046       40.11549
C         37.69433       89.76656       39.60838
O         38.43750       88.85885       39.26655
C         36.09076       90.01525       41.54975
C         34.63333       89.94161       42.00610
O         36.95265       89.38162       42.46676
H         36.47160       87.44143       40.83747
H         35.59717       89.97130       39.41983
H         36.33620       91.09638       41.56766
H         36.52595       88.54807       42.79589
H         34.29311       88.88967       42.03307
H         34.54158       90.38944       43.01886
H         33.98651       90.51693       41.31168
N         38.10911       91.06407       39.51751
C         39.42427       91.48830       39.03231
C         40.52442       90.84179       39.85432
O         41.43272       90.25917       39.28236
C         39.53260       93.03287       39.08800
C         40.85851       93.54351       38.51800
O         38.48625       93.59762       38.33562
H         37.44730       91.79765       39.81142
H         39.53538       91.17907       37.96804
H         39.46831       93.35731       40.15577
H         37.96558       94.18902       38.94009
H         41.72038       93.14565       39.09299
H         40.96077       93.24052       37.45381
H         40.88577       94.65220       38.57601
N         40.46942       90.87784       41.21266
C         41.40964       90.17887       42.08567
C         41.49485       88.68386       41.74117
O         42.59865       88.20274       41.52430
C         41.07368       90.43147       43.59185
C         39.64698       90.03615       44.01455
C         39.33601       90.24218       45.49725
C         37.87110       89.84045       45.76305
N         37.53010       89.94864       47.17863
H         39.69211       91.40421       41.63110
H         42.42582       90.60754       41.93100
H         41.19667       91.51694       43.79937
H         41.81088       89.88060       44.21649
H         39.50439       88.97111       43.82828
H         38.90968       90.62352       43.43697
H         39.48579       91.30709       45.77721
H         40.01702       89.60662       46.10434
H         37.70119       88.79055       45.43227
H         37.19513       90.49983       45.17195
H         36.52476       89.68834       47.30482
H         38.12064       89.29084       47.73704
H         37.67175       90.92956       47.51067
N         40.38495       87.89048       41.66364
C         40.43566       86.44181       41.41477
C         40.87542       86.08908       39.99862
O         41.09766       84.91408       39.73971
C         39.05620       85.80324       41.73544
C         38.78739       85.91427       43.24218
C         37.40344       85.63299       43.73934
O         36.35329       85.30382       42.96127
O         37.20567       85.78168       44.93387
H         39.46645       88.32888       41.81448
H         41.18234       85.99406       42.10903
H         39.02079       84.72810       41.45470
H         38.29051       86.34215       41.15446
H         38.97328       86.94547       43.56613
H         39.50491       85.25581       43.77664
N         41.02704       87.03145       39.02954
C         41.48805       86.71559       37.69618
H         42.51513       86.29547       37.74288
H         40.80451       85.98561       37.21580
H         41.51408       87.63998       37.07912
H         40.80426       88.00713       39.23048
Ca        34.53392       85.47097       44.31240
O         32.41217       87.34698       42.63380
H         31.65851       87.94904       42.41152
H         32.45462       86.70577       41.88188
O         34.38757       88.39174       44.69606
H         33.49933       88.80073       44.85000
H         34.92866       88.66101       45.47901

Ca 1.0



