%chk=holoCaM-CaMKII.loop3.water2.frame99.chk
%nprocshared=20
%mem=10GB
%nosave
#b3lyp/svp scf=(tight,noincore,xqc) Test 
#IOP(5/87=12) Density=Current Pop=(MK,readradii) iop(6/33=2) iop(6/42=6)

holoCaM-CaMKII.loop3.water2.frame99 

   0  1 
C         24.64268       38.78031       58.95000
C         24.85360       37.79276       60.04970
O         24.02919       36.90013       60.19593
H         23.68708       39.31765       59.11643
H         25.47391       39.51299       58.90357
H         24.59468       38.23365       57.98404
N         25.95432       37.86358       60.85254
C         26.21547       36.85022       61.85596
C         25.11782       36.86272       62.91405
O         24.97190       37.84974       63.62198
C         27.62722       37.01242       62.47054
C         28.03145       35.76069       63.18662
O         29.14714       35.63836       63.64705
O         27.16749       34.74005       63.21070
H         26.64722       38.61144       60.69727
H         26.21237       35.88123       61.30402
H         27.68503       37.90194       63.13387
H         28.36077       37.14240       61.64889
N         24.26045       35.80820       63.01198
C         23.08862       35.79540       63.88099
C         23.48407       35.78480       65.35015
O         22.95900       36.59197       66.10414
C         22.18399       34.59509       63.51864
C         20.75715       34.73887       64.07939
C         19.87507       33.56068       63.63997
C         18.41317       33.75906       64.06807
N         17.60722       32.58419       63.73399
H         24.40258       35.01047       62.37373
H         22.48788       36.70607       63.65454
H         22.65542       33.64109       63.83894
H         22.07404       34.57512       62.41055
H         20.31692       35.68225       63.68387
H         20.77621       34.79442       65.18892
H         20.27789       32.62911       64.09180
H         19.90070       33.45984       62.53157
H         17.99659       34.65239       63.54888
H         18.35827       33.93493       65.16453
H         17.95266       31.75502       64.27017
H         16.61124       32.76285       63.99792
H         17.65609       32.38509       62.70834
N         24.44200       34.92513       65.81301
C         24.87758       34.87713       67.21022
C         26.25700       35.50642       67.41369
O         26.73712       35.49302       68.53924
C         24.77798       33.43030       67.76158
C         25.71759       32.42121       67.15970
O         25.66560       31.13921       67.56664
O         26.54288       32.74599       66.32988
H         24.91474       34.31123       65.13341
H         24.18972       35.48206       67.84045
H         23.73801       33.07094       67.60848
H         24.97811       33.44399       68.85453
N         26.91636       36.15398       66.40425
C         28.15083       36.90050       66.61363
C         29.37485       36.06076       66.93418
O         30.39858       36.65580       67.23988
H         26.48391       36.22004       65.47396
H         27.97960       37.62053       67.44470
H         28.38222       37.49803       65.70568
N         29.36698       34.69579       66.90310
C         30.51021       33.89003       67.33919
C         31.77171       34.02233       66.47587
O         32.78623       33.45837       66.86297
C         30.10412       32.40268       67.49853
C         29.73891       31.67049       66.22753
N         29.40919       30.35981       66.28133
O         29.74075       32.24340       65.15142
H         28.49990       34.21420       66.63884
H         30.77346       34.24294       68.36074
H         29.23489       32.34701       68.19009
H         30.94922       31.85934       67.97200
H         29.40132       29.85772       67.18121
H         29.16804       29.84320       65.42236
N         31.79582       34.72862       65.30938
C         32.97887       34.90515       64.48062
C         32.84567       34.28092       63.10393
O         33.76245       34.45583       62.31573
H         30.94262       35.18330       64.98540
H         33.88211       34.46293       64.95473
H         33.15924       35.99549       64.36737
N         31.78580       33.48582       62.76152
C         31.70975       32.75772       61.49428
C         30.36437       32.95956       60.81770
O         29.44054       33.44648       61.44888
C         31.90466       31.25790       61.79620
C         33.20573       31.02679       62.52849
C         34.43475       31.24270       61.88463
C         33.19729       30.62421       63.87590
C         35.63539       31.06231       62.57795
C         34.39846       30.45220       64.56886
C         35.62047       30.67040       63.92479
O         36.77027       30.50420       64.60892
H         31.05277       33.30381       63.45328
H         32.50666       33.10534       60.80202
H         31.87801       30.64365       60.87011
H         31.05842       30.93291       62.44113
H         34.46223       31.55323       60.84776
H         32.26203       30.46186       64.39778
H         36.57561       31.23327       62.06930
H         34.37838       30.15480       65.60992
H         37.63648       30.65013       64.20266
N         30.19260       32.58140       59.51539
C         28.91969       32.67136       58.80133
C         28.58332       31.29620       58.24640
O         29.41240       30.71476       57.56172
C         28.98572       33.69847       57.63102
C         29.50230       35.09564       58.06078
C         27.60526       33.82485       56.94526
C         28.64466       35.82933       59.09468
H         31.00878       32.21801       59.00094
H         28.11000       33.01153       59.48182
H         29.70977       33.32518       56.87287
H         29.56909       35.73960       57.15627
H         30.53123       34.99136       58.46600
H         26.82625       34.15571       57.66557
H         27.64815       34.55166       56.10749
H         27.27872       32.85285       56.52420
H         28.57941       35.25813       60.03685
H         29.11392       36.80998       59.31941
H         27.62023       36.02068       58.71794
N         27.35076       30.75296       58.44398
C         26.92976       29.48049       57.87175
C         25.86516       29.72746       56.81755
O         25.47389       30.86414       56.61174
C         26.42676       28.55135       58.98955
O         25.30811       29.10466       59.63340
H         26.65067       31.29608       58.95784
H         27.78105       28.97813       57.36471
H         27.25772       28.36758       59.71192
H         26.13924       27.56055       58.58070
H         25.57476       29.31463       60.56625
N         25.37405       28.69730       56.07646
C         24.36116       28.88236       55.04094
C         23.06385       29.39315       55.63661
O         22.53698       30.38874       55.15943
C         24.10479       27.56120       54.31112
H         25.74820       27.75152       56.24532
H         24.73540       29.60285       54.27861
H         25.04823       27.20206       53.84707
H         23.72920       26.78382       55.00913
H         23.35745       27.71550       53.50315
N         22.50936       28.75928       56.70694
C         21.25628       29.15728       57.34130
C         21.25941       30.62091       57.73872
O         20.32116       31.32728       57.39764
C         21.00598       28.28803       58.58071
H         23.02158       27.95444       57.10217
H         20.41545       28.98405       56.63344
H         20.03851       28.55954       59.05409
H         20.96374       27.21642       58.29019
H         21.81992       28.42034       59.32665
N         22.29844       31.14622       58.44313
C         22.35884       32.54499       58.86810
C         22.24777       33.45825       57.65568
O         21.33808       34.27507       57.61624
C         23.65405       32.81890       59.67295
C         23.72174       31.94379       60.94967
C         25.01418       32.09455       61.69315
O         25.03759       32.22106       63.02935
O         26.07467       32.00787       61.10180
H         23.08504       30.51742       58.65655
H         21.50231       32.75718       59.54707
H         23.69600       33.89201       59.96423
H         24.53079       32.60311       59.02286
H         23.65913       30.87740       60.67726
H         22.86831       32.16566       61.62517
N         23.10437       33.33040       56.60406
C         23.00268       34.10252       55.38085
H         22.16618       34.83194       55.40528
H         23.95032       34.65274       55.20792
H         22.83167       33.41143       54.52708
H         23.84762       32.62510       56.65123
Ca        27.11971       32.61104       63.76728
O         26.21481       29.65255       64.23384
H         26.35900       28.67794       64.32857
H         26.54829       30.03659       65.08303
O         28.50482       30.01771       62.20148
H         28.43641       29.07912       62.50934
H         28.97107       29.95935       61.33004

Ca 1.0



