%chk=holoCaM.loop2.water2.frame434.chk
%nprocshared=20
%mem=10GB
%nosave
#b3lyp/svp scf=(tight,noincore,xqc) Test 
#IOP(5/87=12) Density=Current Pop=(MK,readradii) iop(6/33=2) iop(6/42=6)

holoCaM.loop2.water2.frame434 

   -2  1 
C         99.33415      103.74202       64.27473
C         99.95738      104.90651       63.56581
O        100.37854      104.74341       62.43099
H         98.46249      103.38060       63.68954
H        100.07627      102.92259       64.36999
H         98.98335      104.02616       65.28905
N        100.07671      106.11184       64.18908
C        100.64192      107.29582       63.55839
C        102.03738      107.50761       64.11106
O        102.20233      107.93336       65.24505
C         99.64348      108.46299       63.72589
C        100.14673      109.86405       63.50052
O         99.96511      110.68579       64.38384
O        100.76205      110.25942       62.36786
H         99.78105      106.18840       65.17465
H        100.75781      107.11833       62.47210
H         99.25072      108.44415       64.76687
H         98.78172      108.27068       63.04962
N        103.09656      107.08054       63.35958
C        104.47940      107.05472       63.81426
C        105.12090      108.42500       63.94796
O        106.21071      108.47410       64.50229
C        105.32771      106.21592       62.84138
H        102.88633      106.63221       62.45900
H        104.49464      106.54773       64.80396
H        106.37381      106.12242       63.20163
H        104.90233      105.19380       62.74384
H        105.34079      106.68634       61.83322
N        104.56227      109.56314       63.43382
C        105.21007      110.87407       63.54825
C        104.36432      111.89729       64.29257
O        104.92478      112.90148       64.71041
C        105.66799      111.41101       62.17437
C        104.55166      111.62196       61.18775
O        104.29319      112.85524       60.71429
O        103.90792      110.67450       60.77141
H        103.67482      109.48810       62.92064
H        106.13462      110.77063       64.15670
H        106.39997      110.70384       61.72764
H        106.19183      112.37907       62.33329
N        103.02541      111.73703       64.48981
C        102.22063      112.64700       65.28735
C        101.29387      113.52773       64.47341
O        100.52891      114.25138       65.09580
H        102.54388      110.93351       64.07653
H        102.85886      113.33070       65.88728
H        101.63757      112.03951       66.01274
N        101.34390      113.60704       63.10729
C        100.56033      114.61071       62.38075
C         99.05624      114.36518       62.43417
O         98.30264      115.31207       62.25598
C        101.03517      114.79634       60.92746
C        100.68344      113.64182       60.02197
N         99.87301      113.83849       58.95601
O        101.13249      112.52759       60.24317
H        102.03052      113.03590       62.59469
H        100.77162      115.58092       62.88648
H        102.13477      114.95950       60.91334
H        100.56139      115.72187       60.53344
H         99.47982      114.76927       58.75156
H         99.63706      113.05812       58.32938
N         98.55297      113.11851       62.65435
C         97.13944      112.81847       62.80804
C         96.61708      111.79577       61.81659
O         95.50417      111.33684       62.02185
H         99.20686      112.33556       62.75249
H         96.50321      113.72794       62.74777
H         97.01496      112.39007       63.82545
N         97.32071      111.41421       60.70789
C         96.82100      110.41617       59.75444
C         97.87688      109.35670       59.49316
O         98.98230      109.47681       59.99647
C         96.44309      111.09856       58.41624
C         95.34217      112.14369       58.60342
O         97.57513      111.70346       57.84854
H         98.22020      111.87101       60.50197
H         95.91548      109.90923       60.15222
H         96.05099      110.31600       57.72533
H         97.40687      111.78188       56.87318
H         95.07166      112.57993       57.61869
H         94.43763      111.67106       59.04101
H         95.68639      112.96351       59.26818
N         97.60356      108.30377       58.66252
C         98.63570      107.37837       58.20336
C         98.73861      107.41879       56.68022
O         97.84169      107.90806       56.01220
C         98.42136      105.93756       58.75647
C         97.07078      105.31060       58.32622
C         98.57911      105.95384       60.28424
C         96.91505      103.85118       58.77041
H         96.64769      108.18632       58.29971
H         99.62352      107.72121       58.57305
H         99.23151      105.29767       58.35182
H         97.01008      105.32333       57.21742
H         96.21969      105.89564       58.73422
H         97.78426      106.56041       60.76616
H         98.54762      104.92804       60.69926
H         99.56810      106.38192       60.54827
H         97.75988      103.24733       58.38682
H         96.87759      103.75428       59.87427
H         95.96652      103.43502       58.37116
N         99.85797      106.92780       56.07933
C        100.08125      106.85009       54.63869
C        100.26601      105.38473       54.28022
O        100.10244      104.54762       55.14786
C        101.33640      107.66552       54.24915
C        101.20074      109.13036       54.54328
O        100.29867      109.78244       54.04175
O        102.11442      109.74303       55.31758
H        100.60288      106.55651       56.67598
H         99.21417      107.24440       54.06597
H        101.51676      107.58078       53.15749
H        102.22801      107.26917       54.78052
N        100.61121      104.98878       53.02307
C        100.79505      103.58254       52.67713
C        101.84485      102.88185       53.55460
O        101.48527      101.85133       54.11011
C        101.10086      103.42041       51.17066
C        101.33184      101.97245       50.81195
C        100.30840      101.02137       50.96791
C        102.58876      101.55866       50.33855
C        100.54282       99.67879       50.65844
C        102.81876      100.21535       50.03235
C        101.79718       99.27586       50.19253
H        100.73770      105.69975       52.29015
H         99.82453      103.06479       52.84919
H        101.98535      104.01528       50.88970
H        100.25484      103.82077       50.57128
H         99.33236      101.31660       51.33173
H        103.39444      102.27259       50.21766
H         99.75250       98.95025       50.78340
H        103.79119       99.90311       49.67483
H        101.97830       98.23558       49.95711
N        103.13433      103.31768       53.74130
C        104.12702      102.60581       54.54672
C        103.62902      102.23813       55.93196
O        103.72466      101.08996       56.33851
C        105.28407      103.61237       54.67392
C        105.19787      104.35055       53.36408
C        103.69250      104.54809       53.21152
H        104.45181      101.69921       53.98894
H        105.06318      104.37434       55.45559
H        106.26798      103.15695       54.91410
H        105.79355      105.28657       53.30599
H        105.54228      103.65179       52.56856
H        103.31745      105.39441       53.82431
H        103.49523      104.72986       52.14499
N        103.07556      103.20700       56.70161
C        102.58786      103.03236       58.06354
C        101.47363      101.99769       58.11731
O        101.52131      101.12801       58.97571
C        102.12717      104.40564       58.58342
C        103.32706      105.37860       58.69434
C        102.85581      106.74992       59.03655
O        102.14473      107.37476       58.27150
O        103.16626      107.28078       60.21826
H        102.98550      104.13974       56.27108
H        103.41029      102.69282       58.73231
H        101.65566      104.30947       59.58707
H        101.37138      104.80245       57.87925
H        103.91085      105.45885       57.75563
H        104.00829      105.00261       59.48961
N        100.47720      101.99196       57.19012
C         99.42268      100.99929       57.13393
H         98.43549      101.50128       57.12669
H         99.51752      100.41947       56.19152
H         99.45684      100.29440       57.98984
H        100.49280      102.69423       56.44864
Ca       101.75732      108.83641       60.97287
O        100.72714      110.29975       57.80831
H         99.80856      110.13921       57.47829
H        101.04583      111.06633       57.27025
O        103.78970      110.81669       57.71994
H        103.72493      109.83290       57.62764
H        104.72593      110.97894       57.99713

Ca 1.0



