%chk=holoCaM-CaMKII.loop4.water1.frame332.chk
%nprocshared=20
%mem=10GB
%nosave
#b3lyp/svp scf=(tight,noincore,xqc) Test 
#IOP(5/87=12) Density=Current Pop=(MK,readradii) iop(6/33=2) iop(6/42=6)

holoCaM-CaMKII.loop4.water1.frame332 

   -3  1 
C         15.61073       43.44475       53.72414
C         14.99142       42.25108       54.38363
O         15.70084       41.32308       54.74094
H         16.70971       43.32008       53.62953
H         15.17842       43.56005       52.70644
H         15.39262       44.35687       54.31664
N         13.64294       42.20391       54.54741
C         12.93179       41.05487       55.09434
C         13.23241       39.80845       54.27285
O         13.08599       39.82467       53.05909
C         11.42314       41.36247       55.13660
C         10.57632       40.15712       55.42426
O          9.73168       39.83142       54.60690
O         10.74489       39.39606       56.52405
H         13.09564       43.02048       54.23141
H         13.26185       40.88475       56.14065
H         11.10303       41.76343       54.14964
H         11.23520       42.14694       55.90219
N         13.63914       38.67683       54.91308
C         14.03349       37.43623       54.25633
C         12.94349       36.38651       54.45299
O         12.56685       35.73720       53.48773
C         15.40170       36.93300       54.82765
C         16.46523       38.06593       54.84490
C         15.89880       35.71709       54.02038
C         17.80562       37.65652       55.46428
H         13.67124       38.69660       55.94001
H         14.16469       37.60645       53.16391
H         15.24605       36.60792       55.87888
H         16.08461       38.89760       55.47235
H         16.63974       38.45199       53.81784
H         16.09875       36.00846       52.96682
H         16.82566       35.29393       54.45663
H         15.14875       34.90043       54.03026
H         18.32339       36.89422       54.84881
H         18.47121       38.54398       55.52457
H         17.65464       37.25990       56.49016
N         12.37586       36.18911       55.67859
C         11.34891       35.18494       55.96042
C         10.13370       35.36811       55.06218
O          9.73170       34.44036       54.37512
C         10.85689       35.28202       57.43469
C         11.92376       35.06023       58.47519
O         12.85676       35.83772       58.59388
O         11.81553       34.02886       59.33290
H         12.68032       36.80022       56.44509
H         11.77564       34.17077       55.79807
H         10.06830       34.51150       57.58395
H         10.39372       36.27437       57.63018
N          9.48722       36.55906       55.07266
C          8.25001       36.87191       54.37744
C          7.19444       37.25748       55.39686
O          6.10494       36.70377       55.37491
H          9.91270       37.29737       55.63834
H          7.88999       36.02349       53.75453
H          8.43763       37.73263       53.70229
N          7.49172       38.17081       56.36572
C          6.61058       38.57543       57.44935
C          6.53582       40.10117       57.57648
O          5.88249       40.57896       58.49335
C          7.07380       37.87583       58.75175
C          8.46810       38.17238       59.24011
O          8.94398       37.49126       60.29802
O          9.17907       38.99811       58.69703
H          8.43478       38.56045       56.39168
H          5.57880       38.20314       57.26633
H          7.02577       36.78040       58.56468
H          6.36323       38.10888       59.57271
N          7.13247       40.93029       56.66517
C          7.01460       42.37858       56.67950
C          7.80910       43.09848       57.75229
O          7.74296       44.31860       57.75401
H          7.61647       40.53275       55.85114
H          5.94117       42.65836       56.74167
H          7.40330       42.76470       55.71065
N          8.59496       42.45601       58.66813
C          9.40936       43.17626       59.65153
C         10.88268       42.88050       59.46257
O         11.21985       41.98266       58.71013
C          8.89655       42.91317       61.08984
C          8.70296       41.44778       61.54839
C          9.94199       40.62994       61.81890
N          9.80689       39.37765       62.31414
O         11.05868       41.08414       61.63154
H          8.64196       41.43104       58.65993
H          9.31865       44.27130       59.48697
H          7.88097       43.36457       61.12612
H          9.52135       43.45853       61.82997
H          8.05226       40.90735       60.82882
H          8.15547       41.49083       62.51474
H          8.87177       38.98457       62.49984
H         10.63276       38.80026       62.52447
N         11.82635       43.65950       60.07574
C         13.26181       43.43141       59.93630
C         13.87250       43.36906       61.32556
O         14.05568       44.41679       61.93183
C         13.91878       44.57155       59.09371
C         15.43034       44.34985       58.90282
C         13.25938       44.70369       57.71201
H         11.51482       44.46493       60.63902
H         13.44629       42.46879       59.41071
H         13.77474       45.53985       59.62386
H         15.87338       45.19607       58.33443
H         15.95652       44.29688       59.87734
H         15.61901       43.41353       58.33810
H         13.37533       43.76598       57.12821
H         12.17884       44.93621       57.81274
H         13.72652       45.53833       57.14512
N         14.17888       42.17795       61.91954
C         14.80760       42.13170       63.24055
C         16.26553       42.57171       63.14127
O         16.71047       42.89798       62.05062
C         14.61966       40.76543       63.95746
C         15.51253       39.61310       63.55671
N         15.46481       39.05286       62.33150
O         16.27039       39.14252       64.39214
H         13.91161       41.31152       61.43873
H         14.25209       42.84278       63.89328
H         13.55401       40.45723       63.88711
H         14.82042       40.94818       65.03676
H         14.81958       39.38982       61.61220
H         16.06953       38.24768       62.11184
N         17.07113       42.62713       64.23705
C         18.47352       43.03734       64.16138
C         19.31441       42.07535       63.32504
O         20.22150       42.53636       62.64815
C         19.06113       43.20089       65.57700
C         20.49288       43.69467       65.57505
C         20.84211       44.90487       64.94569
C         21.49402       42.94804       66.21817
C         22.16736       45.35062       64.95399
C         22.81631       43.40140       66.23384
C         23.15766       44.60424       65.59968
O         24.42915       45.05279       65.60744
H         16.66825       42.39064       65.15634
H         18.50663       44.04005       63.68079
H         18.98481       42.23156       66.11694
H         18.44396       43.94532       66.12576
H         20.09471       45.50552       64.44419
H         21.25151       42.01758       66.71569
H         22.42399       46.28004       64.46065
H         23.57382       42.81713       66.74050
H         25.14197       44.57094       66.05079
N         19.09744       40.72810       63.34196
C         19.88793       39.78207       62.54682
C         19.69095       39.96028       61.03330
O         20.44353       39.36201       60.27777
C         19.55887       38.33703       62.99898
C         20.44032       37.24945       62.36123
C         20.13932       35.90356       62.95604
O         20.32609       35.68966       64.27275
O         19.73788       34.99329       62.24858
H         18.36837       40.36638       63.97001
H         20.95863       39.97190       62.78354
H         18.48966       38.11260       62.79281
H         19.71726       38.29761       64.09972
H         21.51248       37.48062       62.53874
H         20.25923       37.19795       61.26826
N         18.72896       40.77734       60.51363
C         18.53226       40.99895       59.08253
C         18.87292       42.42994       58.68603
O         18.84138       42.72649       57.49954
C         17.07646       40.68024       58.70063
C         16.69507       39.24158       59.05911
C         15.27144       38.97989       58.68796
O         14.99738       38.06499       57.93267
O         14.29143       39.78145       59.14058
H         18.09610       41.26498       61.15021
H         19.20589       40.34027       58.49234
H         16.92833       40.83783       57.60846
H         16.40312       41.37558       59.25119
H         16.81577       39.09059       60.14376
H         17.36129       38.52622       58.53280
N         19.23035       43.36884       59.60728
C         19.63235       44.70726       59.24425
H         20.54155       44.66277       58.60798
H         18.81255       45.22189       58.70301
H         19.87662       45.28469       60.16274
H         19.23151       43.14396       60.60423
Ca        12.31687       39.56029       58.11601
O         12.71553       37.52105       61.40125
H         12.85289       37.75133       62.35465
H         12.40772       36.58035       61.41703

Ca 1.0



