%chk=holoCaM.loop4.water3.frame435.chk
%nprocshared=20
%mem=10GB
%nosave
#b3lyp/svp scf=(tight,noincore,xqc) Test 
#IOP(5/87=12) Density=Current Pop=(MK,readradii) iop(6/33=2) iop(6/42=6)

holoCaM.loop4.water3.frame435 

   -3  1 
C        109.57339       71.72700       43.42923
C        109.90331       70.51997       44.24121
O        109.04561       70.07801       44.98830
H        108.59610       72.15243       43.74940
H        110.36089       72.49342       43.56643
H        109.50021       71.43417       42.36184
N        111.14069       69.94243       44.16413
C        111.48492       68.73811       44.90342
C        112.99485       68.57931       45.12688
O        113.78218       68.60319       44.19321
C        110.87973       67.51508       44.19890
C        111.09159       66.27426       44.98715
O        111.68631       65.33417       44.48514
O        110.61059       66.19355       46.24377
H        111.85610       70.38311       43.56952
H        111.02381       68.81715       45.90884
H        111.33049       67.39618       43.19128
H        109.78239       67.63718       44.09564
N        113.41562       68.31962       46.39448
C        114.76491       68.06821       46.88792
C        114.96350       66.55652       47.12577
O        116.04256       66.06330       46.82852
C        114.95419       68.93396       48.20432
C        115.31726       70.39792       47.82727
C        115.97736       68.33968       49.19057
C        115.35326       71.38630       49.00451
H        112.67930       68.23543       47.09543
H        115.54781       68.35817       46.15162
H        114.00155       68.94089       48.77497
H        114.56985       70.78468       47.10285
H        116.31477       70.40398       47.33503
H        115.63437       67.33904       49.52820
H        116.98071       68.25410       48.73130
H        116.03977       68.94422       50.11886
H        114.35921       71.45109       49.49473
H        116.11819       71.11531       49.75977
H        115.62067       72.39737       48.62744
N        113.99953       65.78711       47.71074
C        114.20855       64.42289       48.23350
C        113.34892       63.29525       47.63037
O        113.64083       62.13780       47.90256
C        113.99868       64.47893       49.76196
C        112.65248       65.05904       50.21735
O        111.67545       65.42316       49.32707
O        112.47553       65.20600       51.41399
H        113.10618       66.24845       47.86786
H        115.26112       64.11318       48.03506
H        114.81102       65.11403       50.17592
H        114.13220       63.46231       50.19918
N        112.31209       63.54103       46.79232
C        111.52720       62.51483       46.10049
C        110.55020       61.72150       46.96445
O        109.98424       60.76317       46.45739
H        112.12614       64.51406       46.59605
H        112.23142       61.82799       45.58067
H        110.90757       62.99766       45.31578
N        110.29206       62.05395       48.25961
C        109.42742       61.27136       49.15946
C        107.90410       61.32415       48.87585
O        107.17551       60.65698       49.59866
C        109.66413       61.71735       50.63154
C        109.28512       63.12914       50.89475
O        108.99717       63.83605       49.96993
O        109.27036       63.63251       52.13818
H        110.80103       62.86080       48.64318
H        109.75734       60.21265       49.10348
H        110.73470       61.61614       50.90054
H        109.05275       61.08744       51.30528
N        107.34005       62.09324       47.89888
C        105.89137       62.20874       47.69498
C        105.22538       63.31314       48.52005
O        104.01702       63.46708       48.40517
H        107.95554       62.60945       47.26751
H        105.39685       61.22400       47.85567
H        105.70536       62.48147       46.63394
N        105.94237       64.12311       49.35417
C        105.40847       65.24753       50.11211
C        106.30018       66.53731       50.03802
O        107.08911       66.61976       48.87737
C        105.29952       64.90693       51.60763
C        104.25522       63.83021       51.90970
C        103.98634       63.79697       53.39196
N        104.93013       63.37569       54.26366
O        102.90377       64.17899       53.81169
H        106.92154       63.93837       49.44840
H        104.38629       65.48375       49.73208
H        104.96429       65.82561       52.13667
H        106.29571       64.62451       52.01576
H        104.57241       62.83114       51.53913
H        103.31096       64.11181       51.39496
H        105.84235       63.03472       53.92879
H        104.74016       63.38028       55.27703
N        105.38027       67.68885       50.08841
C        105.97882       69.02689       50.10709
C        106.45053       69.40295       51.51159
O        105.72694       69.22730       52.48152
C        104.95459       70.03868       49.53217
C        105.54901       71.45687       49.49982
C        104.54292       69.63194       48.10192
H        104.63285       67.60790       50.81711
H        106.84123       69.05765       49.40597
H        104.03686       70.04461       50.16091
H        106.52199       71.46031       48.96018
H        104.85993       72.16169       48.98951
H        105.71450       71.82800       50.53216
H        104.11728       68.60596       48.08126
H        103.75918       70.31981       47.71977
H        105.41354       69.66381       47.41109
N        107.66551       69.99405       51.64881
C        108.31767       70.38148       52.89037
C        108.36814       71.89779       53.01472
O        108.01119       72.59996       52.08248
C        109.75053       69.78499       52.84390
C        110.63466       70.04633       54.02962
N        110.29036       69.59352       55.25166
O        111.69174       70.64103       53.88117
H        108.16120       70.20405       50.79066
H        107.74292       69.98843       53.75555
H        110.26367       70.17239       51.93607
H        109.66633       68.69265       52.74847
H        109.41663       69.06697       55.38572
H        110.90612       69.76283       56.05786
N        108.77134       72.46256       54.18674
C        108.89011       73.90076       54.43005
C        109.95603       74.56496       53.56735
O        109.84956       75.75646       53.30967
C        109.13089       74.15169       55.94158
C        110.34061       73.44324       56.53519
C        110.15839       72.33260       57.38473
C        111.64849       73.88832       56.27832
C        111.25658       71.68194       57.95603
C        112.74587       73.24054       56.85933
C        112.55292       72.13303       57.69742
O        113.60218       71.49759       58.25815
H        108.96056       71.82224       54.96674
H        107.91457       74.37459       54.17570
H        108.22087       73.76739       56.45193
H        109.18908       75.23717       56.16907
H        109.16471       71.95808       57.59842
H        111.82253       74.74670       55.64473
H        111.09851       70.82378       58.59917
H        113.74668       73.60281       56.66235
H        114.51626       71.77214       58.09691
N        111.01804       73.85309       53.10087
C        112.07015       74.39820       52.25121
C        111.70399       74.23702       50.78566
O        112.27083       74.92450       49.94766
C        113.37316       73.62224       52.54978
C        114.64371       74.18901       51.90741
C        114.91459       75.58181       52.39810
O        115.04020       75.81905       53.71863
O        115.01000       76.50534       51.60673
H        111.08208       72.86576       53.36098
H        112.19859       75.47780       52.49497
H        113.24224       72.56657       52.21832
H        113.53059       73.60816       53.64969
H        114.57234       74.16671       50.79894
H        115.49629       73.53966       52.20225
N        110.77195       73.31758       50.40701
C        110.37863       73.07758       49.02790
C        109.10863       73.84267       48.68228
O        108.75932       73.87278       47.51052
C        110.05617       71.58225       48.85317
C        111.22635       70.63261       49.15083
C        110.78350       69.19052       49.17363
O        111.61063       68.30194       49.12795
O        109.51689       68.86292       49.47216
H        110.32773       72.73436       51.12712
H        111.19554       73.38259       48.33851
H        109.67271       71.37209       47.83176
H        109.24027       71.38719       49.55678
H        111.68672       70.84429       50.13882
H        111.99967       70.78268       48.36945
N        108.33752       74.43492       49.64222
C        107.06534       75.07076       49.36871
H        106.27202       74.57999       49.97472
H        107.12336       76.13911       49.65655
H        106.77206       74.99479       48.30106
H        108.62904       74.41660       50.62697
Ca       109.39834       66.02609       49.05612
O        109.95849       66.65013       51.62072
H        110.83071       67.02669       51.34303
H        110.18739       65.89440       52.21133
O        108.08414       65.01163       46.72458
H        107.26955       65.55611       46.60204
H        108.05226       64.36604       45.97805
O        108.33910       68.00297       47.15827
H        109.01711       68.37497       46.55886
H        107.53971       67.87731       46.59221

Ca 1.0



