%chk=holoCaM.loop1.water2.frame480.chk
%nprocshared=20
%mem=10GB
%nosave
#b3lyp/svp scf=(tight,noincore,xqc) Test 
#IOP(5/87=12) Density=Current Pop=(MK,readradii) iop(6/33=2) iop(6/42=6)

holoCaM.loop1.water2.frame480 

   0  1 
C         75.58037       83.68370       69.38378
C         74.10553       83.90196       69.24528
O         73.68770       84.71207       68.42983
H         76.14488       84.33582       68.68507
H         75.88788       83.92327       70.42428
H         75.82146       82.62194       69.16891
N         73.24941       83.20546       70.04007
C         71.80422       83.38296       70.00841
C         71.47423       84.83149       70.34456
O         71.91671       85.32358       71.37312
C         71.14957       82.37561       70.97695
C         69.65377       82.34539       70.92092
O         68.98735       81.46724       71.68699
O         69.03490       83.08272       70.17771
H         73.65329       82.52612       70.70459
H         71.44084       83.13848       68.98696
H         71.46959       82.58497       72.01905
H         71.49226       81.35462       70.69755
N         70.73490       85.58055       69.47879
C         70.54192       87.02549       69.58594
C         69.10665       87.39148       69.97551
O         68.84640       88.55643       70.23699
C         70.95684       87.60854       68.21518
C         71.04521       89.13316       68.09193
C         71.49282       89.48874       66.65887
C         71.73484       90.98701       66.42747
N         70.51938       91.78400       66.59035
H         70.32621       85.10747       68.66277
H         71.20562       87.42597       70.38293
H         70.24521       87.22912       67.44834
H         71.96662       87.20395       67.97683
H         71.79059       89.51297       68.82347
H         70.05779       89.59113       68.29835
H         70.73663       89.12223       65.92884
H         72.45268       88.96825       66.44471
H         72.10784       91.11375       65.38598
H         72.52425       91.35299       67.11999
H         69.76942       91.43338       65.95118
H         70.19090       91.75558       67.58123
H         70.73410       92.77733       66.34436
N         68.13284       86.43999       70.05336
C         66.75269       86.67571       70.48283
C         66.34651       85.78069       71.65712
O         65.22987       85.92723       72.13633
C         65.77333       86.48941       69.29469
C         65.82913       85.15178       68.58166
O         65.07255       84.94757       67.64980
O         66.74339       84.22063       68.92745
H         68.38798       85.49130       69.78323
H         66.63887       87.72572       70.83273
H         65.99575       87.27625       68.54117
H         64.73682       86.66425       69.65893
N         67.18353       84.83924       72.17858
C         66.84308       83.97540       73.29403
C         65.65508       83.08014       73.02122
O         64.73715       83.07137       73.82897
H         68.12919       84.72391       71.79775
H         66.65971       84.58934       74.20281
H         67.71438       83.31721       73.50407
N         65.61826       82.27134       71.92302
C         64.57333       81.27210       71.69980
C         65.18637       79.87931       71.56513
O         64.51096       78.97416       71.09381
C         63.66111       81.66731       70.51132
C         64.27384       81.61103       69.14523
O         63.61630       81.93929       68.17145
O         65.51530       81.15196       68.96956
H         66.38121       82.34033       71.23232
H         63.87793       81.23288       72.56642
H         63.28768       82.69771       70.69422
H         62.78409       80.98395       70.49375
N         66.44850       79.61950       72.02384
C         67.06558       78.30925       71.95441
C         67.51333       77.90358       70.56587
O         67.92930       76.76041       70.44019
H         66.97036       80.35099       72.52274
H         66.35369       77.55919       72.36339
H         67.97257       78.28988       72.59787
N         67.52756       78.75961       69.49361
C         68.00185       78.33366       68.17270
C         68.55030       79.50376       67.28536
O         69.09217       80.52508       68.07133
C         66.88312       77.58899       67.37860
C         66.36475       76.29883       68.02221
O         65.80370       78.44894       67.11701
H         67.30255       79.74811       69.65013
H         68.87348       77.66026       68.34501
H         67.30227       77.27826       66.39960
H         65.37667       78.67329       67.98444
H         65.62514       75.82211       67.34441
H         67.19994       75.58652       68.18572
H         65.84752       76.50650       68.98127
N         69.60582       78.94183       66.42104
C         70.38770       79.83023       65.54232
C         69.77782       79.87306       64.14320
O         69.59676       78.82458       63.53874
C         71.85203       79.28004       65.50875
C         72.52643       79.30369       66.91198
C         72.74950       79.98978       64.48234
C         72.77646       80.70165       67.49626
H         69.33070       78.05863       65.93423
H         70.42693       80.85757       65.94396
H         71.80222       78.21429       65.19124
H         73.51053       78.79033       66.84307
H         71.90595       78.72854       67.63141
H         72.35145       79.85971       63.45746
H         72.83232       81.06895       64.69907
H         73.76752       79.54529       64.49462
H         73.45842       81.29649       66.85420
H         71.82890       81.25393       67.63348
H         73.26028       80.60478       68.49082
N         69.51695       81.06927       63.53833
C         69.08032       81.18925       62.14485
C         70.28970       81.42911       61.25901
O         71.38608       81.51260       61.77986
C         68.07589       82.35849       61.98923
C         66.85491       82.18301       62.88353
O         68.70908       83.57283       62.30801
H         69.76896       81.93315       64.04023
H         68.59853       80.24410       61.80924
H         67.73058       82.37997       60.92973
H         68.22429       84.29085       61.82331
H         66.14754       83.02353       62.72005
H         66.33552       81.22867       62.65926
H         67.17552       82.19399       63.94305
N         70.18297       81.55255       59.90690
C         71.34615       81.85129       59.06815
C         71.96622       83.19643       59.43633
O         73.18280       83.31124       59.39318
C         71.02494       81.80213       57.55534
C         70.65254       80.38281       57.09014
O         70.04002       82.74440       57.20335
H         69.25556       81.43684       59.47381
H         72.11894       81.06773       59.24399
H         71.95212       82.06427       56.99884
H         69.14786       82.35247       57.39004
H         71.48347       79.67943       57.31653
H         69.73421       80.01661       57.59391
H         70.48528       80.37730       55.99246
N         71.19246       84.24564       59.84054
C         71.73895       85.53968       60.25141
C         72.68079       85.37782       61.43103
O         73.82488       85.80401       61.35811
C         70.58232       86.49571       60.64225
C         71.08144       87.88175       61.09679
C         69.94481       88.82276       61.53508
C         68.91544       89.15842       60.44052
N         69.52991       89.80694       59.28111
H         70.17005       84.11233       59.87206
H         72.28829       85.99330       59.39675
H         69.98479       86.04992       61.46703
H         69.92057       86.60835       59.75874
H         71.68110       88.35012       60.28925
H         71.74744       87.76095       61.97846
H         70.40075       89.77162       61.89338
H         69.40784       88.36382       62.39445
H         68.16041       89.84661       60.88114
H         68.37544       88.24327       60.11702
H         70.04962       90.66415       59.57917
H         70.17640       89.14835       58.79145
H         68.77844       90.08280       58.60899
N         72.22945       84.79099       62.56781
C         73.00094       84.66369       63.79983
C         74.27822       83.87857       63.54863
O         75.34876       84.37116       63.87489
C         72.11434       84.01580       64.88827
C         70.91095       84.92918       65.23266
C         69.92935       84.31504       66.18633
O         68.82489       85.00557       66.52911
O         70.10548       83.20066       66.64659
H         71.27027       84.41664       62.54426
H         73.28543       85.67344       64.17363
H         72.70585       83.84257       65.81410
H         71.74755       83.03950       64.51497
H         70.32983       85.17957       64.32416
H         71.29071       85.87821       65.66659
N         74.23970       82.67710       62.91419
C         75.40832       81.89523       62.56953
H         76.34928       82.35614       62.93271
H         75.31505       80.88017       63.00668
H         75.46581       81.79868       61.46377
H         73.33497       82.31040       62.62038
Ca        67.62312       82.31675       67.99952
O         66.07501       80.81746       65.75646
H         66.59316       80.19897       65.18203
H         65.17958       80.85536       65.33658
O         66.00034       83.96791       65.32188
H         65.48023       84.57605       64.74002
H         65.32429       83.34707       65.69331

Ca 1.0



