%chk=holoCaM-CaMKII.loop2.water2.frame99.chk
%nprocshared=20
%mem=10GB
%nosave
#b3lyp/svp scf=(tight,noincore,xqc) Test 
#IOP(5/87=12) Density=Current Pop=(MK,readradii) iop(6/33=2) iop(6/42=6)

holoCaM-CaMKII.loop2.water2.frame99 

   -2  1 
C         25.35832       61.87932       46.80265
C         24.42100       62.49239       45.79623
O         24.54559       62.20655       44.61505
H         26.40515       62.17129       46.58149
H         25.11479       62.20427       47.83760
H         25.27194       60.77237       46.76514
N         23.43192       63.33127       46.20776
C         22.41889       63.89947       45.32321
C         22.99848       64.82876       44.26280
O         23.78090       65.71056       44.58648
C         21.36099       64.63806       46.16139
C         20.24588       65.14366       45.29795
O         19.93352       66.45251       45.28665
O         19.63377       64.36890       44.58417
H         23.36231       63.53079       47.21825
H         21.89461       63.05875       44.81952
H         21.82266       65.48159       46.71781
H         20.92990       63.92474       46.89758
N         22.58346       64.70251       42.96775
C         23.06048       65.50402       41.84698
C         21.93596       66.29114       41.15936
O         22.18442       66.82301       40.08561
C         23.71513       64.54576       40.84215
H         21.88424       63.97951       42.75256
H         23.83979       66.22915       42.16666
H         24.13745       65.10645       39.98109
H         24.54567       63.99353       41.33206
H         22.97535       63.81020       40.45923
N         20.69469       66.45015       41.71381
C         19.59774       67.14289       41.02651
C         18.45982       67.54420       41.97122
O         18.10590       68.71582       41.94887
C         19.09386       66.34869       39.78638
C         19.04412       64.86640       40.01343
O         19.77487       64.13585       39.36223
O         18.32328       64.33554       41.00718
H         20.52099       66.07816       42.65553
H         19.96834       68.11639       40.63072
H         19.81880       66.50886       38.95819
H         18.11532       66.74478       39.43773
N         17.83595       66.67166       42.81573
C         16.70906       67.05142       43.66632
C         15.44803       66.25057       43.37211
O         14.44057       66.50257       44.01742
H         18.17301       65.70543       42.88351
H         16.45286       68.12548       43.54110
H         16.99540       66.89811       44.72861
N         15.41766       65.28538       42.40736
C         14.23842       64.50461       42.03086
C         13.71748       63.53160       43.10487
O         12.77387       62.81111       42.80858
C         14.51882       63.75841       40.69868
C         15.59755       62.70241       40.73586
N         15.87991       62.00807       39.61119
O         16.21876       62.46828       41.76068
H         16.26236       65.13890       41.85029
H         13.41797       65.21766       41.79578
H         14.81075       64.51039       39.93160
H         13.58017       63.27633       40.35327
H         15.37346       62.19615       38.73423
H         16.60059       61.27710       39.61393
N         14.22457       63.47583       44.37189
C         13.68277       62.62616       45.42472
C         14.12480       61.17115       45.37868
O         13.72620       60.43600       46.26915
H         14.95158       64.13631       44.65504
H         12.57289       62.70556       45.43491
H         14.04449       63.01676       46.40027
N         14.94224       60.67851       44.40351
C         15.40012       59.28660       44.34831
C         16.92184       59.19531       44.25058
O         17.59785       60.20900       44.17003
C         14.74897       58.58462       43.12309
C         13.26420       58.31960       43.37040
O         14.89295       59.35785       41.95810
H         15.23831       61.30236       43.64630
H         15.11364       58.72939       45.26713
H         15.18746       57.57744       42.95178
H         15.85582       59.35263       41.71946
H         12.82606       57.79756       42.49320
H         13.14637       57.65662       44.25610
H         12.70826       59.26275       43.54655
N         17.50814       57.96015       44.19247
C         18.91905       57.72044       43.91246
C         19.00288       57.19629       42.49252
O         18.48468       56.12545       42.20706
C         19.52535       56.70512       44.94185
C         19.76043       57.34261       46.33580
C         20.81381       56.01362       44.44299
C         20.93633       58.33001       46.39348
H         16.90182       57.12929       44.24833
H         19.49333       58.66528       43.94089
H         18.78235       55.88585       45.06930
H         19.98681       56.53209       47.06301
H         18.83165       57.84937       46.67347
H         21.60366       56.74894       44.19332
H         21.19276       55.30709       45.21177
H         20.61072       55.40844       43.53607
H         21.02983       58.74167       47.41938
H         21.89673       57.82488       46.15696
H         20.79720       59.16879       45.69084
N         19.64382       57.93194       41.53950
C         19.83290       57.47191       40.16966
C         20.95381       56.45256       40.13721
O         21.55939       56.21090       41.17316
C         20.17107       58.65729       39.24262
C         19.06580       59.67839       39.22696
O         18.47575       59.92925       38.18858
O         18.72839       60.33162       40.35409
H         20.02951       58.84743       41.80428
H         18.88723       57.01337       39.80142
H         20.31681       58.28139       38.20724
H         21.11156       59.14908       39.57293
N         21.28702       55.78789       38.99616
C         22.33483       54.77867       38.99957
C         23.71864       55.38012       39.26035
O         24.37911       54.88310       40.15801
C         22.34672       53.90849       37.72267
C         23.23864       52.70845       37.94868
C         24.44543       52.55749       37.24666
C         22.87164       51.73726       38.90014
C         25.27488       51.46019       37.50593
C         23.69930       50.64320       39.15154
C         24.90259       50.50572       38.45798
H         20.74282       55.95526       38.13499
H         22.08488       54.07853       39.82779
H         22.68839       54.48638       36.84690
H         21.32407       53.53942       37.49195
H         24.75326       53.29514       36.51622
H         21.94341       51.82809       39.45112
H         26.21040       51.35193       36.97372
H         23.40739       49.90612       39.88869
H         25.54577       49.65974       38.66068
N         24.24382       56.42569       38.53268
C         25.57702       56.98784       38.75502
C         25.83921       57.31892       40.20695
O         26.89161       56.97590       40.72915
C         25.56886       58.28296       37.92818
C         24.66625       57.91155       36.78014
C         23.54618       57.16970       37.50073
H         26.33896       56.27982       38.35902
H         25.04070       59.09360       38.48138
H         26.57846       58.65396       37.64806
H         24.32814       58.76027       36.14845
H         25.21568       57.18244       36.14125
H         22.83868       57.87317       37.99243
H         23.01327       56.55925       36.75440
N         24.87744       57.95673       40.92560
C         24.99703       58.31280       42.33387
C         25.27198       57.06632       43.14972
O         26.27763       57.01632       43.84261
C         23.69644       58.98178       42.83265
C         23.35061       60.25965       42.05104
C         22.01888       60.82133       42.43091
O         21.52544       61.81148       41.68177
O         21.35684       60.36355       43.34683
H         23.99434       58.15576       40.43522
H         25.83365       59.03653       42.46323
H         23.79220       59.23325       43.91208
H         22.85448       58.26622       42.71051
H         23.26838       60.04382       40.96961
H         24.13759       61.03248       42.17953
N         24.42322       56.00352       43.07545
C         24.62587       54.75342       43.77318
H         25.54218       54.76196       44.39798
H         23.74911       54.55129       44.42228
H         24.71472       53.93520       43.02708
H         23.59687       56.06801       42.47026
Ca        19.47929       62.67074       41.91621
O         17.21902       63.11844       44.81594
H         17.19379       64.10678       44.76110
H         16.90476       62.91707       45.73257
O         19.50642       61.58173       45.90060
H         20.40422       61.44681       45.51071
H         19.66759       61.63332       46.87506

Ca 1.0



