%chk=holoCaM-CaMKII.loop4.water2.frame225.chk
%nprocshared=20
%mem=10GB
%nosave
#b3lyp/svp scf=(tight,noincore,xqc) Test 
#IOP(5/87=12) Density=Current Pop=(MK,readradii) iop(6/33=2) iop(6/42=6)

holoCaM-CaMKII.loop4.water2.frame225 

   -3  1 
C         30.84699       50.64510       41.11716
C         31.71282       51.08324       39.97324
O         32.92696       51.00461       40.08695
H         29.76884       50.76089       40.87534
H         31.04469       49.57816       41.34767
H         31.07271       51.26398       42.01077
N         31.14758       51.58368       38.84099
C         31.90481       52.06425       37.69619
C         31.72232       53.56435       37.61379
O         30.60498       54.03154       37.44272
C         31.44671       51.30359       36.43835
C         31.88009       51.91334       35.13400
O         33.16567       52.18796       34.85364
O         31.02999       52.19123       34.30363
H         30.11974       51.66616       38.79772
H         32.98379       51.85966       37.83850
H         30.33548       51.25960       36.42085
H         31.82370       50.25949       36.50706
N         32.80170       54.37752       37.80673
C         32.72927       55.82751       37.91517
C         33.54035       56.54577       36.83440
O         33.44984       57.76410       36.78336
C         33.09730       56.26150       39.37311
C         34.53861       55.84503       39.78880
C         32.04608       55.68333       40.34477
C         34.93316       56.29416       41.20009
H         33.71642       53.94118       37.95744
H         31.68326       56.16092       37.73744
H         33.02170       57.36989       39.42833
H         35.26171       56.29246       39.07422
H         34.65483       54.74246       39.76284
H         31.02579       55.98985       40.03053
H         32.09118       54.57307       40.36842
H         32.18718       56.06648       41.37447
H         34.84524       57.39562       41.30051
H         34.30637       55.80078       41.97171
H         35.98424       55.99747       41.40277
N         34.29139       55.87874       35.90213
C         34.91206       56.53523       34.74656
C         34.33126       56.01800       33.41726
O         34.76042       56.48232       32.37026
C         36.45521       56.47670       34.82620
C         37.09196       55.11881       34.78292
O         36.42514       54.10452       34.68185
O         38.43388       55.02747       34.85109
H         34.38998       54.85929       35.97193
H         34.67989       57.62236       34.75847
H         36.76930       56.96906       35.77286
H         36.87484       57.07144       33.98545
N         33.27725       55.14689       33.38957
C         32.51826       54.79754       32.19452
C         33.20323       53.86781       31.21636
O         33.24382       54.17512       30.03401
H         32.88507       54.80161       34.27571
H         32.17030       55.72417       31.68802
H         31.60880       54.25141       32.52576
N         33.69136       52.67018       31.63622
C         34.18286       51.61249       30.75963
C         33.51209       50.26172       31.06134
O         33.90594       49.27539       30.45384
C         35.72321       51.55577       30.82414
C         36.30196       51.47910       32.20771
O         37.03838       52.36640       32.60468
O         36.04870       50.43310       33.00514
H         33.71592       52.49001       32.64221
H         33.94837       51.83647       29.69490
H         36.10354       52.48904       30.35339
H         36.09477       50.70426       30.21390
N         32.45724       50.13840       31.92728
C         31.76892       48.87707       32.17960
C         32.56268       47.87550       33.00069
O         32.06601       46.77413       33.18503
H         32.06264       50.97493       32.37187
H         31.47649       48.42506       31.20658
H         30.83353       49.07767       32.74778
N         33.77343       48.18267       33.55029
C         34.56506       47.24956       34.35182
C         34.79280       47.81266       35.74696
O         34.51461       48.98187       35.97608
C         35.94167       47.03671       33.68461
C         35.87757       46.50878       32.24354
C         35.35689       45.09894       32.17205
N         34.25425       44.80188       31.44710
O         35.95173       44.20863       32.76119
H         34.15022       49.12336       33.41089
H         34.03592       46.27717       34.44980
H         36.57091       46.35547       34.29796
H         36.45578       48.01744       33.64708
H         36.90619       46.51218       31.82287
H         35.26492       47.19469       31.62018
H         33.74242       45.53527       30.93562
H         33.91423       43.83046       31.39224
N         35.28914       47.01502       36.74182
C         35.59474       47.51082       38.08176
C         36.98856       47.03755       38.48261
O         37.14981       45.85642       38.75856
C         34.51166       47.03507       39.09755
C         34.81894       47.49690       40.53259
C         33.12013       47.55951       38.70058
H         35.42994       46.01197       36.54781
H         35.57851       48.61854       38.08323
H         34.47655       45.92302       39.09520
H         34.84090       48.60380       40.59173
H         34.03822       47.12415       41.23007
H         35.79084       47.09374       40.88240
H         32.82717       47.19309       37.69545
H         32.35270       47.20650       39.42239
H         33.11032       48.67044       38.68970
N         38.05000       47.89910       38.52212
C         39.38109       47.48490       38.96662
C         39.43425       47.39763       40.49051
O         38.43146       47.64534       41.13522
C         40.52530       48.36175       38.37621
C         40.74190       49.73968       38.96255
N         39.89645       50.76229       38.72312
O         41.75044       49.94870       39.62021
H         37.90865       48.85396       38.18794
H         39.58136       46.47768       38.53745
H         40.42688       48.43236       37.27283
H         41.46840       47.80137       38.55232
H         39.07516       50.64522       38.12363
H         40.09937       51.69812       39.10473
N         40.58524       47.05797       41.13221
C         40.73241       46.95022       42.58675
C         40.39169       48.25051       43.30826
O         39.60009       48.21573       44.23984
C         42.18462       46.52267       42.89526
C         42.49059       46.30807       44.35865
C         41.77781       45.36176       45.11503
C         43.52989       47.03041       44.96983
C         42.10378       45.14056       46.45730
C         43.85804       46.80269       46.30875
C         43.14751       45.85369       47.05672
O         43.46323       45.61422       48.34550
H         41.41047       46.85600       40.54976
H         40.05256       46.15168       42.95788
H         42.87778       47.28239       42.47020
H         42.38154       45.56191       42.37177
H         40.97726       44.78763       44.66690
H         44.09932       47.75969       44.40693
H         41.55150       44.40554       47.02926
H         44.67019       47.35854       46.76028
H         44.19152       46.07152       48.78998
N         40.95071       49.43226       42.92614
C         40.69951       50.71433       43.59207
C         39.21397       51.01753       43.67738
O         38.72022       51.27395       44.76680
C         41.41319       51.86730       42.84774
C         42.94462       51.74017       42.90108
C         43.60587       52.87846       42.17962
O         43.41976       53.04082       40.98385
O         44.42281       53.71636       42.84596
H         41.57220       49.41131       42.10696
H         41.09727       50.67802       44.63106
H         41.13769       52.83229       43.33036
H         41.06784       51.89963       41.78989
H         43.28578       50.79368       42.43506
H         43.26852       51.74261       43.96454
N         38.43850       50.98133       42.56359
C         37.00016       51.24692       42.56684
C         36.27661       50.30339       43.51377
O         35.47633       50.76406       44.31581
C         36.43119       51.10535       41.14499
C         37.03041       52.14752       40.18572
C         36.50601       51.94550       38.80416
O         35.92915       52.94862       38.14106
O         36.60118       50.86289       38.25844
H         38.89933       50.71697       41.68022
H         36.80399       52.29250       42.89517
H         35.32907       51.24784       41.17089
H         36.64982       50.08063       40.77017
H         38.12547       52.05039       40.14582
H         36.79482       53.17720       40.53221
N         36.54534       48.97156       43.50633
C         35.91033       48.03568       44.40582
H         34.82177       47.99035       44.19689
H         36.34584       47.02298       44.26134
H         36.08155       48.34284       45.45961
H         37.25651       48.61288       42.86565
Ca        34.86468       52.29382       36.28885
O         38.20019       49.45213       35.11209
H         38.54204       49.07494       34.26289
H         39.01336       49.61540       35.65101
O         38.83901       52.36576       36.02588
H         39.79849       52.14240       36.12523
H         38.65660       53.00661       36.75825

Ca 1.0



