%chk=holoCaM.loop4.water3.frame14.chk
%nprocshared=20
%mem=10GB
%nosave
#b3lyp/svp scf=(tight,noincore,xqc) Test 
#IOP(5/87=12) Density=Current Pop=(MK,readradii) iop(6/33=2) iop(6/42=6)

holoCaM.loop4.water3.frame14 

   -3  1 
C         69.32028       20.79671       45.81284
C         70.07104       21.43828       44.68474
O         69.46823       21.71713       43.65846
H         68.25469       20.63927       45.53710
H         69.77625       19.81886       46.06780
H         69.35606       21.46320       46.70119
N         71.39195       21.74770       44.83074
C         72.15897       22.47402       43.82691
C         73.47616       21.78513       43.48690
O         74.22899       21.43899       44.38643
C         72.44619       23.88504       44.35729
C         73.14003       24.70627       43.31251
O         72.60758       24.88000       42.22845
O         74.35716       25.22804       43.55465
H         71.84841       21.53573       45.73162
H         71.55843       22.60295       42.89883
H         73.06570       23.83371       45.27887
H         71.48497       24.38486       44.60581
N         73.85656       21.67478       42.18147
C         75.15010       21.17383       41.72455
C         75.88599       22.31233       41.00131
O         76.96197       22.70613       41.42690
C         74.95008       19.93260       40.78388
C         74.19636       18.79650       41.52300
C         76.30229       19.44088       40.22856
C         73.91567       17.56444       40.65302
H         73.20947       22.02663       41.46975
H         75.76996       20.85153       42.59097
H         74.32538       20.22584       39.91413
H         73.21272       19.18429       41.86558
H         74.77269       18.47553       42.41656
H         76.16010       18.62092       39.49576
H         76.81986       20.24998       39.67294
H         76.95925       19.08796       41.05024
H         73.31923       16.83544       41.23842
H         73.34946       17.83846       39.73881
H         74.85120       17.05332       40.35166
N         75.35976       22.83932       39.86045
C         76.04563       23.76688       38.94748
C         75.86817       25.26916       39.25452
O         76.48132       26.06901       38.56017
C         75.53318       23.51015       37.50809
C         74.05350       23.78058       37.39345
O         73.35395       24.09312       38.50387
O         73.49640       23.72538       36.31018
H         74.50416       22.38050       39.53285
H         77.13284       23.53180       38.95969
H         75.73084       22.45625       37.21502
H         76.08039       24.17171       36.80215
N         75.05744       25.73365       40.24566
C         74.94017       27.14890       40.59729
C         74.16363       28.07500       39.65321
O         74.13430       29.25664       39.96992
H         74.58263       25.04914       40.84292
H         75.96535       27.55831       40.73699
H         74.43241       27.22372       41.58067
N         73.51589       27.67818       38.51228
C         72.84395       28.65345       37.62933
C         71.65132       29.38002       38.27524
O         71.24404       30.39840       37.73367
C         72.44937       28.02645       36.26366
C         71.40596       26.95165       36.35523
O         70.80881       26.70711       37.52402
O         71.12499       26.27587       35.37929
H         73.55757       26.68885       38.23390
H         73.60604       29.42996       37.39330
H         73.36630       27.57794       35.82502
H         72.07867       28.80874       35.56670
N         71.03286       28.91829       39.40457
C         69.96008       29.62926       40.10010
C         68.62187       28.89916       40.10328
O         67.73171       29.33704       40.81762
H         71.34165       28.02535       39.80941
H         69.78454       30.64023       39.67263
H         70.29082       29.77815       41.14922
N         68.37779       27.83984       39.28012
C         67.09708       27.15507       39.14517
C         67.27528       25.64932       39.30109
O         68.11755       25.06986       38.62873
C         66.49606       27.43125       37.75615
C         66.32458       28.93350       37.48363
C         65.56348       29.17052       36.20514
N         66.02401       28.70671       35.01984
O         64.51102       29.79036       36.24212
H         69.11073       27.55009       38.64441
H         66.36551       27.53585       39.89243
H         65.49802       26.93960       37.71704
H         67.13975       26.98748       36.96564
H         67.32187       29.42031       37.41373
H         65.76674       29.39977       38.32573
H         66.90770       28.18105       34.96167
H         65.48861       28.86946       34.15420
N         66.47957       24.94783       40.15304
C         66.58469       23.50223       40.36880
C         66.28406       22.71970       39.08373
O         65.24788       22.93178       38.47153
C         65.64798       23.05537       41.53119
C         65.74915       21.53903       41.78086
C         66.01336       23.78099       42.84390
H         65.76457       25.47727       40.67221
H         67.61827       23.26829       40.70275
H         64.59411       23.29836       41.26967
H         65.43408       20.96412       40.88624
H         66.79162       21.25408       42.04117
H         65.08151       21.24264       42.61773
H         67.06108       23.55364       43.13660
H         65.91105       24.88101       42.76089
H         65.33856       23.45668       43.66359
N         67.14915       21.74540       38.67136
C         66.99117       20.88983       37.49385
C         66.80638       19.44200       37.94163
O         66.84551       19.17281       39.12964
C         68.25782       21.06859       36.62375
C         68.38108       20.22100       35.38115
N         67.49984       20.33744       34.36317
O         69.31217       19.43428       35.28357
H         67.96930       21.55904       39.25651
H         66.08944       21.18317       36.91454
H         69.14061       20.85055       37.26492
H         68.29429       22.12894       36.30418
H         66.71595       21.00208       34.41735
H         67.60968       19.76134       33.51531
N         66.52294       18.46740       37.03164
C         66.23983       17.07422       37.38703
C         67.46308       16.24837       37.78573
O         67.25525       15.12951       38.24022
C         65.43231       16.39941       36.25226
C         66.10131       16.48341       34.89629
C         67.28653       15.78454       34.61311
C         65.53091       17.29411       33.89717
C         67.89107       15.90264       33.35698
C         66.13902       17.41482       32.64743
C         67.32014       16.72229       32.37160
O         67.89540       16.85308       31.15970
H         66.38185       18.76372       36.06026
H         65.56206       17.08408       38.27040
H         64.46353       16.94498       36.20510
H         65.18911       15.34400       36.50160
H         67.74425       15.14663       35.35641
H         64.62117       17.84989       34.08992
H         68.80421       15.35895       33.15175
H         65.69258       18.05353       31.89547
H         68.71418       16.39378       30.92622
N         68.74846       16.70405       37.68909
C         69.88159       15.96479       38.24997
C         70.14105       16.38702       39.68991
O         71.08722       15.89508       40.28104
C         71.18438       16.25411       37.46593
C         71.15804       15.79735       36.00807
C         72.49182       16.07562       35.36773
O         73.61078       15.50512       35.85805
O         72.56993       16.82266       34.40608
H         68.91488       17.66276       37.34752
H         69.69057       14.86757       38.23295
H         72.02225       15.71563       37.96550
H         71.40488       17.34528       37.50781
H         70.35405       16.33464       35.46186
H         70.96178       14.70500       35.95849
N         69.37013       17.33530       40.29756
C         69.73383       17.97512       41.54916
C         68.69306       17.66665       42.60418
O         69.04935       17.15157       43.65663
C         69.89100       19.50109       41.31781
C         70.64440       19.81855       40.00905
C         70.97666       21.27257       39.84270
O         70.05484       22.22904       40.03965
O         72.08791       21.59234       39.46332
H         68.54242       17.69609       39.82464
H         70.72315       17.60445       41.89746
H         70.42698       19.92095       42.19294
H         68.89497       19.98883       41.23584
H         69.99646       19.52374       39.15697
H         71.58045       19.23285       39.94175
N         67.37394       17.91566       42.37620
C         66.34302       17.59421       43.33684
H         65.34440       17.83531       42.91257
H         66.36925       16.50875       43.57399
H         66.49176       18.18564       44.26365
H         67.07782       18.32346       41.47888
Ca        71.30158       24.85629       38.56799
O         70.44726       23.03015       36.87973
H         71.16711       22.61815       36.34444
H         70.12268       23.79243       36.33722
O         69.43604       24.91006       42.06972
H         69.56759       23.93107       42.11981
H         69.40664       25.20144       43.01529
O         71.20036       27.30369       42.33955
H         72.07972       27.32598       41.88730
H         71.12718       28.19038       42.76953

Ca 1.0



