%chk=holoCaM.loop3.water2.frame424.chk
%nprocshared=20
%mem=10GB
%nosave
#b3lyp/svp scf=(tight,noincore,xqc) Test 
#IOP(5/87=12) Density=Current Pop=(MK,readradii) iop(6/33=2) iop(6/42=6)

holoCaM.loop3.water2.frame424 

   0  1 
C         -5.16112       89.79760       74.55027
C         -5.75992       88.89810       75.58502
O         -6.87584       88.43182       75.39887
H         -4.21688       89.34791       74.17657
H         -5.85706       89.92569       73.69383
H         -4.94629       90.78966       74.99689
N         -5.05074       88.57998       76.70293
C         -5.56283       87.65167       77.69619
C         -6.78039       88.25227       78.40090
O         -6.66325       89.30551       79.01202
C         -4.46278       87.27845       78.71547
C         -4.85143       86.08406       79.54406
O         -5.88191       85.30721       79.16648
O         -4.18192       85.76523       80.50792
H         -4.09948       88.96540       76.81189
H         -5.83428       86.72296       77.14977
H         -4.26428       88.15833       79.36409
H         -3.51618       87.01214       78.19728
N         -7.98827       87.62975       78.33085
C         -9.22908       88.14620       78.90912
C         -9.13511       88.34013       80.42283
O         -9.45893       89.42502       80.88547
C        -10.39481       87.20725       78.50814
C        -11.79124       87.62028       79.00976
C        -12.22480       89.02893       78.57157
C        -13.64626       89.33474       79.06592
N        -14.03803       90.70441       78.73450
H         -8.03382       86.75014       77.79897
H         -9.43885       89.13392       78.44402
H        -10.18799       86.17978       78.88044
H        -10.42916       87.16242       77.39573
H        -11.81398       87.55942       80.11837
H        -12.52023       86.88077       78.60896
H        -12.19348       89.11251       77.46273
H        -11.53502       89.77996       79.00880
H        -13.68949       89.20653       80.17035
H        -14.36339       88.62114       78.60164
H        -14.02350       90.84659       77.69873
H        -15.00664       90.87742       79.08879
H        -13.38780       91.38297       79.19420
N         -8.66742       87.35738       81.24654
C         -8.54376       87.51200       82.70644
C         -7.09553       87.73979       83.14742
O         -6.88269       87.92497       84.33828
C         -9.20062       86.30744       83.45273
C         -8.54753       84.98341       83.15500
O         -7.45178       84.98618       82.39670
O         -9.01815       83.93426       83.56109
H         -8.33504       86.49321       80.79872
H         -9.09202       88.42287       83.03255
H        -10.26276       86.24789       83.13518
H         -9.17280       86.47280       84.55164
N         -6.05554       87.79325       82.25951
C         -4.68948       88.10547       82.66422
C         -4.04466       87.05750       83.55442
O         -3.07046       87.38625       84.21560
H         -6.23589       87.67415       81.25507
H         -4.70263       89.08497       83.19026
H         -4.03869       88.22893       81.77332
N         -4.51974       85.78078       83.62725
C         -3.96091       84.77327       84.52697
C         -2.57491       84.28693       84.10740
O         -1.94582       83.58256       84.88601
C         -4.91474       83.56166       84.66212
C         -4.93304       82.66640       83.44219
N         -4.57642       81.36434       83.53847
O         -5.26290       83.11702       82.35926
H         -5.33118       85.53721       83.05988
H         -3.90852       85.24941       85.53104
H         -5.94397       83.92633       84.87369
H         -4.59070       82.96063       85.53782
H         -4.29270       80.95708       84.44093
H         -4.58134       80.75765       82.70575
N         -2.06913       84.55857       82.86984
C         -0.78504       84.09148       82.38369
C         -0.90750       83.19579       81.15898
O          0.11627       82.94972       80.54299
H         -2.61810       85.12286       82.21259
H         -0.20605       83.54552       83.16083
H         -0.19760       84.99192       82.10228
N         -2.09572       82.61974       80.77917
C         -2.21357       81.73088       79.61522
C         -3.38124       82.14567       78.72212
O         -4.17942       82.96877       79.13447
C         -2.43422       80.26644       80.05910
C         -1.33433       79.73235       80.95103
C         -1.20614       80.16977       82.28285
C         -0.43533       78.76881       80.46305
C         -0.19418       79.66290       83.10231
C          0.57999       78.26717       81.28300
C          0.70384       78.71355       82.60631
O          1.67668       78.23639       83.40859
H         -2.92853       82.76120       81.36178
H         -1.28092       81.77491       79.01331
H         -2.48481       79.64784       79.13647
H         -3.40728       80.14772       80.58344
H         -1.89303       80.89491       82.69697
H         -0.51283       78.41044       79.44425
H         -0.11030       80.00766       84.12554
H          1.26879       77.53108       80.88843
H          2.31872       77.57938       83.10385
N         -3.54381       81.58874       77.47525
C         -4.69445       81.87986       76.61228
C         -5.15603       80.62005       75.87522
O         -4.39144       80.05272       75.11077
C         -4.42712       83.06644       75.62209
C         -3.31334       82.79358       74.57859
C         -4.14814       84.35605       76.40614
C         -3.12067       83.93989       73.58091
H         -2.82820       80.93436       77.13050
H         -5.54325       82.21023       77.25092
H         -5.37473       83.23495       75.06355
H         -3.59088       81.91777       73.96360
H         -2.34875       82.58437       75.08764
H         -3.19030       84.29454       76.96342
H         -4.12306       85.24568       75.74681
H         -4.97692       84.52339       77.10928
H         -2.73564       84.85244       74.07856
H         -2.37481       83.64176       72.81539
H         -4.08028       84.17249       73.07030
N         -6.41763       80.12926       76.05305
C         -6.94739       79.00067       75.28245
C         -7.14819       79.38233       73.81578
O         -6.89926       80.52021       73.45479
C         -8.29142       78.54310       75.88406
O         -9.23983       79.57214       75.80484
H         -7.02369       80.57797       76.75199
H         -6.24044       78.14533       75.35871
H         -8.13020       78.26302       76.94852
H         -8.66429       77.64792       75.33889
H        -10.08825       79.19320       76.15278
N         -7.63134       78.47616       72.91763
C         -7.96007       78.80178       71.52866
C         -9.07572       79.82938       71.45427
O         -8.94285       80.79720       70.71921
C         -8.41084       77.54363       70.77985
H         -7.79600       77.51158       73.24261
H         -7.05705       79.18519       71.00162
H         -9.31411       77.10114       71.25132
H         -8.64698       77.79612       69.72263
H         -7.59514       76.79059       70.78230
N        -10.19971       79.68303       72.21530
C        -11.32253       80.62058       72.21491
C        -10.84590       82.04524       72.40491
O        -11.19183       82.90651       71.60829
C        -12.30841       80.24942       73.33354
H        -10.23797       78.87812       72.86021
H        -11.86139       80.55465       71.24423
H        -12.68871       79.21700       73.18153
H        -11.81361       80.29717       74.32848
H        -13.17424       80.94532       73.33613
N         -9.99876       82.34455       73.42141
C         -9.44163       83.67241       73.65105
C         -8.66541       84.15019       72.43371
O         -8.97143       85.21836       71.92278
C         -8.53449       83.64195       74.89357
C         -9.34934       83.33941       76.16359
C         -8.44930       83.26294       77.34726
O         -7.68978       84.31814       77.65927
O         -8.39627       82.25286       78.02902
H         -9.71190       81.56978       74.03755
H        -10.26361       84.39716       73.84932
H         -8.04224       84.63311       75.01591
H         -7.74261       82.87256       74.75783
H         -9.89946       82.38024       76.07745
H        -10.08953       84.15200       76.32788
N         -7.66700       83.39359       71.90139
C         -6.89907       83.76907       70.73207
H         -5.81968       83.77896       70.99047
H         -7.06540       83.01981       69.92894
H         -7.17936       84.76977       70.34319
H         -7.45097       82.48890       72.32794
Ca        -7.08424       83.95935       80.48304
O         -9.82377       82.37023       80.60843
H         -9.90782       83.04097       81.32955
H        -10.33412       82.76094       79.85579
O         -6.61264       80.79313       80.56271
H         -6.19686       79.97492       80.19141
H         -6.81869       80.56272       81.50355

Ca 1.0



