%chk=holoCaM.loop1.water2.frame322.chk
%nprocshared=20
%mem=10GB
%nosave
#b3lyp/svp scf=(tight,noincore,xqc) Test 
#IOP(5/87=12) Density=Current Pop=(MK,readradii) iop(6/33=2) iop(6/42=6)

holoCaM.loop1.water2.frame322 

   0  1 
C          0.97624       44.14269      -20.75842
C         -0.03830       43.17389      -21.27824
O          0.06589       42.75060      -22.42111
H          1.74425       44.35871      -21.53088
H          0.46394       45.09263      -20.49339
H          1.46778       43.72628      -19.85590
N         -1.07786       42.79416      -20.48537
C         -2.15595       41.93704      -20.95889
C         -2.83428       42.64093      -22.12299
O         -3.29602       43.75997      -21.94562
C         -3.12143       41.63869      -19.79732
C         -4.24511       40.73935      -20.19960
O         -4.02493       39.62230      -20.63706
O         -5.50923       41.16232      -20.05035
H         -1.11463       43.16145      -19.52104
H         -1.72421       40.97035      -21.28979
H         -3.53905       42.58937      -19.39984
H         -2.55800       41.13797      -18.97893
N         -2.85533       42.07006      -23.36233
C         -3.25044       42.79062      -24.57123
C         -4.55647       42.26645      -25.16673
O         -5.01695       42.81867      -26.15507
C         -2.06382       42.69694      -25.56005
C         -2.10392       43.72530      -26.69810
C         -0.85450       43.58847      -27.58545
C         -0.75086       44.67867      -28.66531
N         -0.54876       46.01095      -28.08845
H         -2.50296       41.10815      -23.47022
H         -3.41637       43.86059      -24.32086
H         -1.98513       41.65863      -25.95474
H         -1.13215       42.91168      -24.98939
H         -2.12824       44.72787      -26.22520
H         -3.00581       43.60139      -27.33049
H         -0.89024       42.59540      -28.08576
H          0.06712       43.62591      -26.96395
H         -1.65815       44.67425      -29.30844
H          0.12579       44.43860      -29.30721
H          0.28787       46.00904      -27.45994
H         -0.38341       46.69552      -28.86073
H         -1.39150       46.32235      -27.55690
N         -5.22532       41.22514      -24.59599
C         -6.51043       40.70883      -25.06058
C         -7.55373       40.84594      -23.94912
O         -8.56159       41.49476      -24.19433
C         -6.40359       39.28005      -25.66386
C         -5.70400       38.21360      -24.86499
O         -5.75808       37.05211      -25.23405
O         -4.97227       38.53238      -23.78944
H         -4.81903       40.79733      -23.75955
H         -6.88874       41.31943      -25.91209
H         -5.86389       39.33828      -26.63436
H         -7.44061       38.94348      -25.88444
N         -7.35698       40.34661      -22.69006
C         -8.26448       40.61272      -21.57665
C         -8.62710       39.37646      -20.77824
O         -9.80883       39.12346      -20.59415
H         -6.47878       39.86095      -22.47672
H         -9.18770       41.13419      -21.91000
H         -7.75734       41.30474      -20.87910
N         -7.65727       38.58437      -20.23319
C         -7.92581       37.44905      -19.34598
C         -7.13174       37.53684      -18.04084
O         -7.16572       36.58361      -17.27396
C         -7.72219       36.11628      -20.10082
C         -6.36511       35.86414      -20.68165
O         -5.33401       36.68587      -20.44464
O         -6.22045       34.93842      -21.46330
H         -6.67532       38.79459      -20.45853
H         -8.99901       37.42921      -19.05506
H         -8.43330       36.13855      -20.95624
H         -8.00119       35.25633      -19.45529
N         -6.45220       38.66886      -17.68043
C         -5.75317       38.81479      -16.41304
C         -4.44088       38.06009      -16.32152
O         -3.81549       38.14851      -15.27732
H         -6.49777       39.50438      -18.27832
H         -6.42994       38.51727      -15.58164
H         -5.49955       39.88772      -16.26804
N         -3.94506       37.32374      -17.36016
C         -2.66307       36.62151      -17.30099
C         -1.73383       37.09510      -18.41347
O         -2.14362       37.84470      -19.28297
C         -2.88790       35.09152      -17.38195
C         -3.63939       34.55042      -16.15658
O         -3.55288       34.73961      -18.56853
H         -4.48239       37.25685      -18.22857
H         -2.14541       36.84212      -16.34293
H         -1.90179       34.57907      -17.38557
H         -4.51927       34.94014      -18.45981
H         -3.75708       33.44951      -16.24815
H         -3.06509       34.76788      -15.23147
H         -4.64728       35.00887      -16.07086
N         -0.42591       36.69991      -18.39812
C          0.56786       37.08454      -19.39678
C          1.16055       35.81556      -19.99428
O          1.61658       34.95369      -19.25980
C          1.64139       38.01441      -18.75006
C          0.96089       39.36004      -18.36126
C          2.82071       38.26431      -19.71504
C          1.88348       40.38005      -17.69249
H         -0.10400       36.11315      -17.61557
H          0.10735       37.66979      -20.21941
H          2.05251       37.52074      -17.84191
H          0.12856       39.15778      -17.65455
H          0.52981       39.83594      -19.27139
H          3.60913       38.87733      -19.23475
H          3.31267       37.31050      -19.99504
H          2.47776       38.77918      -20.63374
H          2.69328       40.70674      -18.37601
H          1.29448       41.28539      -17.43158
H          2.32129       39.95705      -16.76518
N          1.21958       35.67654      -21.34973
C          1.75824       34.50452      -22.03545
C          3.15143       34.79651      -22.56440
O          3.67167       35.87887      -22.34758
C          0.82551       34.11354      -23.22369
C         -0.60058       33.79309      -22.78264
O          0.82888       35.10464      -24.22713
H          0.90817       36.46530      -21.92671
H          1.84025       33.64434      -21.33643
H          1.20246       33.18234      -23.69362
H          0.22622       35.84296      -23.95411
H         -1.06494       34.69541      -22.33700
H         -1.20005       33.47924      -23.66432
H         -0.59923       32.96704      -22.04215
N          3.79971       33.85854      -23.31223
C          5.03325       34.12738      -24.04514
C          4.79834       35.24470      -25.04977
O          5.63915       36.12413      -25.16823
C          5.52341       32.86362      -24.79894
C          5.93803       31.74786      -23.83355
O          4.52381       32.39365      -25.66883
H          3.35674       32.93728      -23.42722
H          5.84370       34.42992      -23.34405
H          6.42814       33.15734      -25.38376
H          4.97952       31.88988      -26.39254
H          5.08294       31.40741      -23.21421
H          6.32046       30.87909      -24.40997
H          6.74843       32.10551      -23.16328
N          3.67054       35.26191      -25.81783
C          3.39990       36.28481      -26.82656
C          3.17484       37.68078      -26.23812
O          3.09472       38.62422      -27.01167
C          2.18027       35.88469      -27.69702
C          2.29468       34.49102      -28.35869
C          3.54109       34.34175      -29.24211
C          3.61687       32.94377      -29.86615
N          4.82303       32.80745      -30.68210
H          2.99608       34.49477      -25.69090
H          4.29117       36.35152      -27.48449
H          2.04459       36.64354      -28.49823
H          1.26348       35.88717      -27.06572
H          1.38475       34.32540      -28.97579
H          2.30795       33.69583      -27.58522
H          4.45538       34.47868      -28.62862
H          3.51979       35.11156      -30.04352
H          2.71914       32.76451      -30.49785
H          3.63744       32.17878      -29.05713
H          4.81061       33.50598      -31.46037
H          5.67471       32.95367      -30.09200
H          4.85620       31.84494      -31.08838
N          3.05845       37.89134      -24.89497
C          2.87714       39.20210      -24.27358
C          4.03573       39.54500      -23.33699
O          4.02706       40.63708      -22.78452
C          1.55335       39.20189      -23.48512
C          0.33764       38.98713      -24.40023
C         -0.94457       38.81007      -23.63526
O         -0.96168       38.80297      -22.28887
O         -1.98700       38.64326      -24.24624
H          3.07334       37.08344      -24.26938
H          2.83888       40.00385      -25.04272
H          1.42073       40.16338      -22.94048
H          1.60786       38.38778      -22.73871
H          0.47832       38.07384      -25.01408
H          0.24327       39.86288      -25.07853
N          5.07066       38.68610      -23.10927
C          6.18310       39.01199      -22.24526
H          6.71944       39.90093      -22.63872
H          5.82219       39.21148      -21.21486
H          6.89539       38.15830      -22.21254
H          5.09067       37.76554      -23.55336
Ca        -4.15135       37.13884      -22.26401
O         -3.34430       34.38641      -21.29926
H         -2.71857       33.78969      -20.81698
H         -3.63894       33.85852      -22.08225
O         -2.69975       35.56877      -24.49628
H         -3.61886       35.64718      -24.85237
H         -2.12034       35.90416      -25.22521

Ca 1.0



