%chk=holoCaM.loop3.water2.frame37.chk
%nprocshared=20
%mem=10GB
%nosave
#b3lyp/svp scf=(tight,noincore,xqc) Test 
#IOP(5/87=12) Density=Current Pop=(MK,readradii) iop(6/33=2) iop(6/42=6)

holoCaM.loop3.water2.frame37 

   0  1 
C         93.62634       -0.22405        9.46405
C         92.53919       -0.05538       10.46991
O         91.39567       -0.37250       10.17355
H         94.40601       -0.90197        9.86585
H         93.21725       -0.64543        8.52157
H         94.06843        0.77161        9.24998
N         92.82319        0.44568       11.70177
C         91.77569        0.70415       12.66955
C         90.94682        1.85913       12.15281
O         91.48445        2.95406       12.03855
C         92.38949        1.05507       14.03530
C         91.39367        1.07096       15.14854
O         90.12812        0.65340       14.96625
O         91.80062        1.24533       16.28206
H         93.80512        0.65057       11.94546
H         91.18061       -0.23188       12.78828
H         92.92987        2.02466       13.99264
H         93.12556        0.26413       14.30312
N         89.64787        1.69194       11.78611
C         88.83411        2.78371       11.26765
C         87.73961        3.17352       12.25005
O         86.99673        4.09374       11.95189
C         88.31300        2.45148        9.85293
C         89.48350        2.32724        8.85526
C         89.00296        2.18418        7.40589
C         90.19516        2.13064        6.43498
N         89.74118        2.08839        5.04490
H         89.21435        0.75923       11.88576
H         89.43618        3.71386       11.16413
H         87.67044        3.29277        9.51418
H         87.70327        1.52160        9.86170
H         90.11789        1.46052        9.12222
H         90.10475        3.24815        8.91788
H         88.37596        3.06602        7.15105
H         88.39033        1.26301        7.29685
H         90.81553        1.23212        6.65130
H         90.83105        3.03375        6.57466
H         89.15043        1.24150        4.88128
H         89.19225        2.95090        4.82247
H         90.57353        2.05074        4.41268
N         87.66918        2.60116       13.49164
C         86.82083        3.10805       14.56435
C         87.67124        3.73386       15.67620
O         87.09060        4.28867       16.60216
C         85.85577        2.01679       15.07426
C         86.51969        0.79751       15.65280
O         86.29142        0.46070       16.93482
O         87.21154        0.07286       14.95589
H         88.30958        1.84160       13.73318
H         86.18266        3.93345       14.18281
H         85.20261        1.69147       14.23613
H         85.20296        2.46758       15.85335
N         89.03883        3.76059       15.62258
C         89.87815        4.51468       16.54180
C         89.89543        4.05420       17.98487
O         90.57880        4.70820       18.76127
H         89.53495        3.31838       14.83630
H         89.55887        5.57868       16.51120
H         90.92923        4.47065       16.17892
N         89.20066        2.97196       18.44420
C         89.21441        2.59878       19.86239
C         90.59399        2.17385       20.36118
O         90.76483        2.04171       21.56523
C         88.15345        1.51747       20.16905
C         88.44296        0.16234       19.56204
N         88.47991       -0.94636       20.33639
O         88.61793        0.05583       18.35986
H         88.61543        2.43939       17.78821
H         88.91228        3.50839       20.42826
H         87.17541        1.87672       19.78355
H         88.05669        1.41055       21.27136
H         88.31721       -0.89304       21.35197
H         88.65071       -1.86971       19.91372
N         91.61181        1.91514       19.49307
C         92.95145        1.52865       19.88756
C         93.26007        0.09368       19.52806
O         94.40435       -0.29576       19.71505
H         91.43736        1.97080       18.48663
H         93.10725        1.63098       20.98363
H         93.66952        2.21052       19.38224
N         92.29020       -0.78198       19.11040
C         92.54918       -2.21148       18.94642
C         92.03795       -2.74313       17.59033
O         92.10497       -1.73244       16.65060
C         91.85983       -2.97086       20.09204
C         92.35712       -2.45630       21.42030
C         91.75244       -1.33939       22.02633
C         93.46666       -3.05270       22.03392
C         92.25273       -0.82901       23.22597
C         93.96478       -2.54255       23.23571
C         93.36033       -1.42682       23.83461
O         93.83816       -0.91892       24.98798
H         91.31612       -0.46266       19.01266
H         93.64403       -2.40297       19.00639
H         92.05446       -4.06103       20.00779
H         90.75947       -2.83682       20.03076
H         90.90464       -0.85304       21.56296
H         93.95219       -3.90374       21.57344
H         91.78409        0.03701       23.67728
H         94.82568       -3.01020       23.69475
H         94.60667       -1.29908       25.43662
N         92.86956       -3.86239       17.13016
C         92.34268       -4.59610       15.95796
C         91.92464       -6.00042       16.38155
O         92.76826       -6.78153       16.80114
C         93.42553       -4.55926       14.81535
C         93.26841       -3.23803       14.00468
C         93.37631       -5.76939       13.86515
C         94.34320       -2.98717       12.94592
H         93.12424       -4.50515       17.91619
H         91.42410       -4.11014       15.56306
H         94.42936       -4.60293       15.29291
H         93.30581       -2.37391       14.69042
H         92.27532       -3.23692       13.49802
H         93.53585       -6.71842       14.41441
H         92.41806       -5.80960       13.32987
H         94.19950       -5.72800       13.12579
H         95.34229       -2.93083       13.42447
H         94.34530       -3.76595       12.15787
H         94.13538       -2.01892       12.44291
N         90.61458       -6.37819       16.30218
C         90.14982       -7.72051       16.63627
C         90.69091       -8.73485       15.64155
O         91.35719       -8.35149       14.69388
C         88.60509       -7.75871       16.64305
O         88.09816       -7.44725       15.37440
H         89.91876       -5.68275       15.99882
H         90.49688       -7.97555       17.66104
H         88.22872       -7.01614       17.38089
H         88.25386       -8.76908       16.94891
H         87.11837       -7.59973       15.41816
N         90.41659      -10.05931       15.78097
C         90.81476      -11.05276       14.78944
C         90.16978      -10.74057       13.44542
O         90.86151      -10.74510       12.43719
C         90.41908      -12.45626       15.25994
H         89.87869      -10.36691       16.60580
H         91.92315      -11.05668       14.68110
H         90.75427      -13.21497       14.52036
H         90.92032      -12.67794       16.22780
H         89.32096      -12.54136       15.39781
N         88.84725      -10.41055       13.37564
C         88.14683      -10.08508       12.13396
C         88.79663       -8.93172       11.38434
O         89.13834       -9.10550       10.22296
C         86.68428       -9.73086       12.43454
H         88.31334      -10.38059       14.25867
H         88.14646      -10.98437       11.47862
H         86.13903       -9.51877       11.49015
H         86.18354      -10.58004       12.94571
H         86.61901       -8.83669       13.09145
N         89.00209       -7.72732       11.98894
C         89.61235       -6.57576       11.32396
C         90.96072       -6.93666       10.72009
O         91.16966       -6.64485        9.55049
C         89.74774       -5.38098       12.30017
C         88.38600       -4.75020       12.63405
C         88.54346       -3.55189       13.52751
O         88.20599       -2.44479       13.13948
O         89.03870       -3.69358       14.76818
H         88.73186       -7.63713       12.97715
H         88.96542       -6.23809       10.48300
H         90.36225       -4.58967       11.81429
H         90.25229       -5.70443       13.23348
H         87.71994       -5.48387       13.13365
H         87.90565       -4.42629       11.68472
N         91.90058       -7.61108       11.43483
C         93.18879       -8.00207       10.89702
H         93.99638       -7.59524       11.53840
H         93.26315       -9.10968       10.88921
H         93.34776       -7.63224        9.86228
H         91.68433       -7.89413       12.39543
Ca        89.96103       -1.19891       16.16068
O         86.07844       -2.53135       15.85788
H         85.66815       -2.57835       16.75780
H         85.86620       -3.40295       15.43942
O         88.48784       -3.60988       17.79814
H         89.12574       -4.25103       18.20068
H         87.71370       -4.16556       17.52973

Ca 1.0



