%chk=holoCaM.loop4.water3.frame409.chk
%nprocshared=20
%mem=10GB
%nosave
#b3lyp/svp scf=(tight,noincore,xqc) Test 
#IOP(5/87=12) Density=Current Pop=(MK,readradii) iop(6/33=2) iop(6/42=6)

holoCaM.loop4.water3.frame409 

   -3  1 
C         75.30037       83.10013       35.67689
C         74.04108       83.46073       36.40903
O         72.99902       83.51068       35.77545
H         76.17404       83.06163       36.35989
H         75.17483       82.09799       35.21300
H         75.49930       83.84393       34.87745
N         74.05712       83.72416       37.74787
C         72.85120       84.01036       38.52481
C         73.22130       84.42009       39.93991
O         73.91354       83.67630       40.62216
C         71.92076       82.77540       38.54349
C         70.70513       82.92461       39.42669
O         70.54284       82.13979       40.34730
O         69.77993       83.88623       39.21739
H         74.96896       83.71459       38.23138
H         72.32916       84.85980       38.04910
H         72.50958       81.90215       38.90107
H         71.56564       82.54964       37.51835
N         72.77532       85.60950       40.43837
C         73.14204       86.14214       41.74468
C         71.91413       86.23058       42.67419
O         72.11138       86.49440       43.85030
C         73.85488       87.52988       41.52214
C         75.04730       87.37905       40.52770
C         74.34277       88.17298       42.83652
C         75.67619       88.70761       40.08639
H         72.16850       86.18824       39.84479
H         73.85963       85.45016       42.23786
H         73.11263       88.21730       41.05739
H         74.69324       86.89685       39.59446
H         75.83194       86.72604       40.96709
H         73.50569       88.37954       43.52800
H         75.08751       87.51899       43.33759
H         74.80426       89.16312       42.65217
H         74.90890       89.36679       39.62643
H         76.16139       89.24004       40.92746
H         76.46183       88.50791       39.32648
N         70.62540       86.03655       42.23670
C         69.45581       86.23888       43.10693
C         68.31541       85.22213       42.91694
O         67.31579       85.34961       43.61248
C         68.93961       87.68637       42.94465
C         68.47038       88.05619       41.56466
O         68.54237       87.26863       40.63732
O         67.97443       89.28838       41.34860
H         70.46094       85.88603       41.23494
H         69.76445       86.15220       44.17187
H         69.75518       88.38853       43.22278
H         68.10041       87.84870       43.65518
N         68.38539       84.18253       42.03839
C         67.34369       83.16755       41.88680
C         66.02942       83.62718       41.26130
O         65.13116       82.80098       41.17757
H         69.25174       84.04496       41.51506
H         67.13281       82.72928       42.88664
H         67.73225       82.35145       41.23997
N         65.81945       84.89683       40.80745
C         64.52383       85.36091       40.29128
C         64.10382       84.75627       38.94425
O         63.03125       85.10838       38.47084
C         64.50971       86.90498       40.20941
C         65.33406       87.46049       39.08563
O         66.50721       87.16111       38.96106
O         64.76566       88.29544       38.19980
H         66.57928       85.57960       40.91225
H         63.75434       85.09748       41.05069
H         64.87139       87.31687       41.17576
H         63.46470       87.25879       40.06686
N         64.87079       83.85397       38.26469
C         64.47857       83.28943       36.98029
C         64.62493       84.24352       35.80625
O         64.30323       83.82718       34.70271
H         65.74405       83.50898       38.68007
H         63.43713       82.90416       37.04579
H         65.13872       82.42440       36.75306
N         65.13138       85.50642       35.94027
C         65.33899       86.41515       34.81146
C         66.82022       86.77230       34.71540
O         67.59798       86.30091       35.53326
C         64.46511       87.68001       34.97648
C         62.99361       87.32727       35.27949
C         62.08886       88.52784       35.41138
N         60.78936       88.34992       35.74637
O         62.51520       89.65845       35.22529
H         65.40234       85.84662       36.87041
H         65.03744       85.92750       33.85910
H         64.51875       88.28446       34.04510
H         64.85929       88.30237       35.80173
H         62.95109       86.77979       36.24512
H         62.59233       86.66978       34.47907
H         60.41654       87.40424       35.91903
H         60.15534       89.15674       35.84425
N         67.28539       87.60802       33.74172
C         68.69441       87.97652       33.61311
C         68.85154       89.46481       33.86894
O         68.17695       90.26720       33.23960
C         69.25236       87.58082       32.21699
C         70.73199       87.99193       32.07296
C         69.14508       86.06508       31.99417
H         66.61853       88.00812       33.06515
H         69.31498       87.43180       34.35882
H         68.66741       88.09579       31.42369
H         71.12753       87.69080       31.08015
H         70.84335       89.09151       32.14698
H         71.35470       87.51546       32.86206
H         69.54075       85.79611       30.99128
H         69.73620       85.51815       32.75774
H         68.08901       85.73002       32.04759
N         69.80429       89.89029       34.74489
C         70.12076       91.28674       35.01620
C         71.40653       91.64625       34.28309
O         72.00809       90.77776       33.68032
C         70.23797       91.44337       36.55401
C         70.61501       92.80934       37.06179
N         69.81808       93.87796       36.84311
O         71.64396       92.94605       37.70713
H         70.40833       89.18198       35.18204
H         69.32247       91.94834       34.61613
H         70.99976       90.72035       36.91784
H         69.26661       91.17197       37.01411
H         68.94054       93.78147       36.31382
H         70.08037       94.80323       37.21260
N         71.84127       92.93237       34.22061
C         73.06037       93.35590       33.52486
C         74.31816       92.84394       34.22009
O         75.19862       92.33900       33.53640
C         73.04649       94.88316       33.28854
C         72.86484       95.71613       34.53176
C         71.59789       96.25113       34.82731
C         73.93647       95.97276       35.39785
C         71.39952       97.00408       35.98334
C         73.73886       96.74406       36.54817
C         72.46634       97.25250       36.84932
O         72.25653       97.97811       37.96509
H         71.24092       93.64675       34.64650
H         73.05225       92.93464       32.49247
H         72.17210       95.06356       32.62326
H         73.93736       95.22280       32.71667
H         70.75411       96.06376       34.17355
H         74.92286       95.58277       35.18007
H         70.41227       97.38847       36.20657
H         74.57369       96.93894       37.20858
H         72.96497       98.16600       38.59632
N         74.42729       92.84367       35.58351
C         75.55621       92.24977       36.31892
C         75.69630       90.73887       36.09394
O         76.62868       90.15303       36.62722
C         75.37054       92.45964       37.84707
C         75.35506       93.92100       38.32247
C         76.69700       94.59319       38.21378
O         77.31700       95.02587       39.32879
O         77.22493       94.76939       37.12830
H         73.65343       93.26010       36.11870
H         76.49787       92.72661       35.97939
H         76.17182       91.93678       38.41545
H         74.40141       91.99225       38.13353
H         75.06552       93.91852       39.39551
H         74.58903       94.50196       37.77943
N         74.80264       90.04164       35.34383
C         74.79316       88.60047       35.16860
C         75.08683       88.24171       33.71988
O         75.88087       87.34045       33.49132
C         73.41269       88.07679       35.60644
C         73.11124       88.48335       37.06162
C         71.78588       87.98823       37.54762
O         71.45887       88.19114       38.70525
O         70.96989       87.28336       36.74533
H         74.02106       90.53531       34.91838
H         75.55821       88.10526       35.80878
H         73.39359       86.96759       35.51526
H         72.62831       88.49535       34.94276
H         73.12561       89.58728       37.17587
H         73.89869       88.05077       37.71151
N         74.52020       88.93371       32.68924
C         74.77007       88.66508       31.29006
H         75.25365       89.55355       30.82982
H         75.42435       87.78340       31.13770
H         73.80166       88.48594       30.77750
H         73.90312       89.72362       32.88518
Ca        70.01245       85.51334       37.70125
O         67.75974       83.79671       37.10166
H         67.89753       82.94570       37.58770
H         67.59244       83.52458       36.16569
O         70.36728       84.14530       35.24321
H         70.75924       85.03474       35.05151
H         69.56228       84.09513       34.67191
O         68.33521       88.95392       37.86117
H         68.02141       89.41868       38.67710
H         67.59697       89.07321       37.21210

Ca 1.0



