%chk=holoCaM.loop3.water2.frame404.chk
%nprocshared=20
%mem=10GB
%nosave
#b3lyp/svp scf=(tight,noincore,xqc) Test 
#IOP(5/87=12) Density=Current Pop=(MK,readradii) iop(6/33=2) iop(6/42=6)

holoCaM.loop3.water2.frame404 

   0  1 
C         74.07522       76.83365       -4.12033
C         73.91686       76.03521       -2.86573
O         73.18474       75.05502       -2.86076
H         75.14357       76.82306       -4.42385
H         73.46317       76.40580       -4.94147
H         73.75833       77.88078       -3.93443
N         74.60724       76.39784       -1.75183
C         74.54914       75.64537       -0.51050
C         73.11744       75.68854        0.04389
O         72.59982       76.76691        0.29865
C         75.60451       76.20319        0.46886
C         75.84780       75.25048        1.58181
O         76.97352       74.86378        1.83781
O         74.80880       74.79402        2.27169
H         75.22811       77.22009       -1.81109
H         74.84372       74.59690       -0.74815
H         75.28283       77.19295        0.85135
H         76.57731       76.32184       -0.05852
N         72.39809       74.53641        0.15240
C         70.95378       74.47073        0.40768
C         70.54189       74.96288        1.79737
O         69.41215       75.40543        1.95176
C         70.48229       73.02732        0.10288
C         68.98740       72.84063       -0.19277
C         68.76407       71.44254       -0.81080
C         67.31822       71.22746       -1.27128
N         67.17703       69.93994       -1.95607
H         72.88604       73.66815       -0.09970
H         70.48440       75.13680       -0.35032
H         70.82299       72.33018        0.89979
H         70.99290       72.74494       -0.84489
H         68.68412       73.59472       -0.95131
H         68.37634       72.98286        0.72380
H         69.04902       70.65133       -0.08309
H         69.41585       71.34161       -1.70840
H         67.02982       72.03856       -1.97676
H         66.63957       71.26256       -0.39208
H         67.46081       69.15617       -1.32466
H         66.17897       69.80670       -2.23746
H         67.76991       69.92479       -2.81885
N         71.40277       74.89789        2.85384
C         71.13097       75.43305        4.19272
C         72.25085       76.37148        4.66863
O         72.19338       76.81136        5.80932
C         70.82472       74.29959        5.21611
C         71.82851       73.19126        5.36781
O         71.63329       72.30434        6.18069
O         72.91009       73.12703        4.59429
H         72.31003       74.44564        2.69398
H         70.20169       76.04699        4.18845
H         69.87019       73.81527        4.92009
H         70.66568       74.76239        6.21564
N         73.26019       76.78314        3.84068
C         74.29501       77.72530        4.24162
C         75.31448       77.18225        5.22821
O         76.11454       77.98310        5.69287
H         73.25311       76.50452        2.85481
H         73.79928       78.62248        4.67581
H         74.85931       78.06381        3.34570
N         75.36421       75.87014        5.61827
C         76.26185       75.42696        6.69069
C         77.75252       75.51255        6.33862
O         78.56679       75.34370        7.23500
C         75.85951       74.02371        7.22289
C         76.48046       72.85001        6.50288
N         77.11784       71.87489        7.19227
O         76.40488       72.76574        5.29502
H         74.68770       75.20321        5.22167
H         76.05847       76.12400        7.53411
H         74.75023       73.93937        7.19718
H         76.15724       73.94922        8.28910
H         77.17848       71.90341        8.21987
H         77.53023       71.06993        6.69705
N         78.18214       75.73243        5.05864
C         79.58417       75.84927        4.67224
C         80.04863       74.70852        3.78062
O         81.13536       74.81189        3.23018
H         77.49127       75.81799        4.30022
H         80.26349       75.88967        5.55069
H         79.69655       76.81021        4.12381
N         79.31439       73.56692        3.64062
C         79.71112       72.41600        2.82849
C         78.58400       72.04628        1.86941
O         77.43776       72.35106        2.16069
C         79.96882       71.21791        3.76321
C         81.11949       71.43933        4.72106
C         80.87515       71.81096        6.05479
C         82.44615       71.23706        4.30194
C         81.93557       71.97694        6.95165
C         83.50553       71.38806        5.20597
C         83.25222       71.75803        6.53519
O         84.26061       71.89926        7.42027
H         78.44257       73.48035        4.17476
H         80.63152       72.63636        2.24403
H         80.16499       70.28792        3.18550
H         79.03756       71.03669        4.34484
H         79.86441       71.97733        6.40138
H         82.65926       70.93835        3.28331
H         81.73270       72.26664        7.97534
H         84.52166       71.21011        4.87573
H         85.18477       71.73757        7.18186
N         78.82791       71.34297        0.72412
C         77.76795       70.93188       -0.20083
C         77.79669       69.41407       -0.32170
O         78.77724       68.88007       -0.82247
C         77.96502       71.60069       -1.59820
C         78.01237       73.14723       -1.48451
C         76.84594       71.16857       -2.57054
C         78.42664       73.83262       -2.79162
H         79.80159       71.08986        0.49712
H         76.77218       71.24643        0.18592
H         78.94319       71.25578       -2.00062
H         78.77077       73.44070       -0.72912
H         77.02675       73.53811       -1.15142
H         77.01003       71.56387       -3.59150
H         76.81323       70.06759       -2.67249
H         75.85908       71.52459       -2.20704
H         78.48731       74.92959       -2.63393
H         79.42757       73.46787       -3.10904
H         77.69935       73.65365       -3.60786
N         76.76177       68.65043        0.13327
C         76.75011       67.19026        0.01996
C         76.39157       66.75763       -1.39562
O         76.14688       67.60821       -2.22854
C         75.76645       66.58776        1.03802
O         74.45670       67.01716        0.77667
H         75.97606       69.12134        0.60596
H         77.75544       66.79746        0.28833
H         76.05999       66.90020        2.06339
H         75.83588       65.47601        0.99893
H         73.85476       66.25606        0.98463
N         76.32847       65.44087       -1.73928
C         75.92773       64.97303       -3.06729
C         74.49732       65.37733       -3.39554
O         74.27340       65.94292       -4.45665
C         76.06718       63.45097       -3.15237
H         76.57514       64.73949       -1.02535
H         76.61294       65.39762       -3.83557
H         75.42127       62.94639       -2.40363
H         75.79061       63.09797       -4.16941
H         77.12535       63.16760       -2.96510
N         73.48462       65.14585       -2.51014
C         72.09186       65.53415       -2.74268
C         71.98644       66.99963       -3.11735
O         71.35945       67.32548       -4.11545
C         71.25779       65.27722       -1.47674
H         73.72763       64.71003       -1.60656
H         71.66199       64.92062       -3.56508
H         71.64309       65.87276       -0.61995
H         70.19600       65.55810       -1.64849
H         71.29406       64.20215       -1.20170
N         72.61139       67.93315       -2.35673
C         72.57104       69.36860       -2.61466
C         73.11367       69.69764       -4.00098
O         72.39401       70.29932       -4.78618
C         73.34390       70.10086       -1.49478
C         72.60985       69.93260       -0.14715
C         73.36619       70.53056        0.99876
O         73.69445       71.70226        0.98073
O         73.66397       69.77515        2.07209
H         73.15793       67.58867       -1.55339
H         71.51586       69.72208       -2.57644
H         73.40500       71.18742       -1.72431
H         74.37730       69.69459       -1.42772
H         72.43559       68.86401        0.09219
H         71.61762       70.41715       -0.22783
N         74.35807       69.31167       -4.38483
C         74.89523       69.57330       -5.70267
H         75.91412       69.13571       -5.78735
H         74.25003       69.10639       -6.47720
H         74.96350       70.66693       -5.87845
H         74.94034       68.79409       -3.72869
Ca        74.72238       72.90347        3.37706
O         76.38140       69.78504        3.13598
H         77.32862       69.50242        3.09406
H         75.90943       69.01174        3.53429
O         74.49922       70.39233        5.42484
H         74.87439       69.84623        6.15975
H         73.99060       71.10374        5.88568

Ca 1.0



