%chk=holoCaM.loop3.water2.frame332.chk
%nprocshared=20
%mem=10GB
%nosave
#b3lyp/svp scf=(tight,noincore,xqc) Test 
#IOP(5/87=12) Density=Current Pop=(MK,readradii) iop(6/33=2) iop(6/42=6)

holoCaM.loop3.water2.frame332 

   0  1 
C         23.49133       11.03599        0.42868
C         24.60457       10.11914        0.83290
O         25.19181        9.47527       -0.02470
H         22.55497       10.73086        0.94231
H         23.74472       12.07673        0.71906
H         23.32652       10.99605       -0.66886
N         24.93368       10.00012        2.14799
C         25.98078        9.12012        2.64148
C         25.31955        8.01145        3.44747
O         24.72350        8.27100        4.48336
C         27.01471        9.96699        3.39475
C         28.05101        9.15660        4.09560
O         28.29129        9.39886        5.38925
O         28.69082        8.30202        3.51146
H         24.39408       10.54331        2.84085
H         26.51895        8.64632        1.79046
H         26.51390       10.61135        4.15003
H         27.51510       10.63095        2.65560
N         25.28040        6.75643        2.91308
C         24.39833        5.69167        3.38385
C         24.89178        4.96534        4.63549
O         24.07458        4.33365        5.28951
C         24.15913        4.72238        2.20211
C         22.98422        3.75735        2.37520
C         22.75586        2.98491        1.06192
C         21.50808        2.09121        1.09068
N         21.63813        0.98248        2.03526
H         25.72403        6.63451        1.99324
H         23.42128        6.17471        3.61204
H         25.09454        4.16247        1.97915
H         23.91467        5.35040        1.31441
H         22.07043        4.35062        2.59927
H         23.18576        3.06297        3.21452
H         23.65238        2.37664        0.81031
H         22.60325        3.72361        0.24319
H         21.35849        1.67255        0.07040
H         20.61383        2.70440        1.34090
H         20.77152        0.39959        1.98995
H         22.45812        0.38786        1.77439
H         21.74664        1.33414        3.01213
N         26.20184        4.98358        5.02050
C         26.70490        4.33666        6.24278
C         27.33097        5.34363        7.20041
O         27.77136        4.92749        8.26381
C         27.69658        3.18737        5.92218
C         28.71425        3.57850        4.90240
O         29.40384        4.72344        5.02024
O         28.76911        2.95818        3.85263
H         26.87811        5.48219        4.42299
H         25.87522        3.87200        6.81768
H         27.12252        2.32925        5.50717
H         28.19328        2.83022        6.84959
N         27.36300        6.68033        6.93822
C         27.86804        7.64870        7.89262
C         29.34856        7.50179        8.14859
O         29.72079        7.38060        9.30711
H         26.96718        7.05072        6.06343
H         27.29482        7.56738        8.84197
H         27.68323        8.66985        7.51501
N         30.25572        7.54020        7.12472
C         31.70352        7.52986        7.34927
C         32.37457        8.80475        6.83854
O         33.55586        8.98035        7.10158
C         32.34633        6.25662        6.75874
C         32.47575        6.26661        5.25286
N         33.67785        6.06129        4.66416
O         31.49420        6.45326        4.55661
H         29.90080        7.59003        6.15964
H         31.89255        7.49275        8.44378
H         31.74274        5.37962        7.07935
H         33.36107        6.13579        7.19603
H         34.52238        5.88500        5.22744
H         33.76365        6.05922        3.63710
N         31.68930        9.73750        6.10959
C         32.24378       11.00563        5.67608
C         32.31315       11.14870        4.16985
O         32.63568       12.24678        3.73642
H         30.70917        9.58084        5.85720
H         33.26576       11.17317        6.07930
H         31.59013       11.80764        6.08269
N         32.11298       10.10154        3.30668
C         32.31103       10.23475        1.86163
C         31.11901        9.74315        1.05304
O         30.21530        9.13198        1.59768
C         33.57513        9.46269        1.41876
C         34.84405       10.01444        2.03202
C         35.13841        9.83755        3.39706
C         35.75750       10.71414        1.22473
C         36.31526       10.36216        3.94116
C         36.93013       11.24012        1.77108
C         37.21287       11.06691        3.13249
O         38.34173       11.57012        3.67111
H         31.90349        9.16426        3.68226
H         32.45371       11.30445        1.59240
H         33.65355        9.55516        0.31456
H         33.48705        8.37746        1.64686
H         34.46625        9.28870        4.04335
H         35.55803       10.86439        0.17106
H         36.53004       10.21983        4.99300
H         37.61658       11.78322        1.13403
H         38.98648       12.06367        3.14396
N         31.06508       10.00186       -0.28568
C         30.00458        9.55437       -1.18479
C         30.62707        8.79128       -2.34305
O         31.52689        9.31051       -2.99102
C         29.18584       10.76982       -1.71638
C         28.43442       11.44489       -0.53836
C         28.18647       10.32177       -2.81141
C         27.65981       12.70351       -0.93481
H         31.81773       10.57531       -0.69829
H         29.28087        8.89214       -0.65910
H         29.88862       11.50081       -2.17471
H         29.16721       11.74455        0.23995
H         27.72453       10.71981       -0.08175
H         27.46236        9.58148       -2.40841
H         27.63382       11.18104       -3.23683
H         28.71661        9.86697       -3.67324
H         26.84649       12.47755       -1.65327
H         27.18436       13.14097       -0.03223
H         28.34861       13.45338       -1.37723
N         30.10900        7.59003       -2.71924
C         30.51789        6.85171       -3.90291
C         29.35834        6.81322       -4.88639
O         28.28268        7.29933       -4.56692
C         30.97201        5.43711       -3.50399
O         29.91531        4.72366       -2.91131
H         29.31141        7.21567       -2.19783
H         31.36853        7.36267       -4.40376
H         31.84257        5.52095       -2.80976
H         31.32472        4.87202       -4.39188
H         30.18600        4.50265       -1.98209
N         29.51443        6.28296       -6.12740
C         28.43858        6.25464       -7.11512
C         27.28262        5.37602       -6.66575
O         26.13997        5.77857       -6.82976
C         28.96620        5.77628       -8.46650
H         30.44344        5.91653       -6.38863
H         28.06664        7.29140       -7.28393
H         29.77699        6.45770       -8.80549
H         29.36209        4.74235       -8.39994
H         28.15132        5.81300       -9.22173
N         27.51030        4.17472       -6.05968
C         26.44476        3.29652       -5.57515
C         25.51940        4.03241       -4.62574
O         24.31199        3.99867       -4.81842
C         27.04700        2.08233       -4.85558
H         28.48986        3.88989       -5.90339
H         25.85472        2.91795       -6.43902
H         27.70988        1.51950       -5.54601
H         27.64102        2.39836       -3.97045
H         26.23802        1.40034       -4.51498
N         26.03939        4.76126       -3.60179
C         25.24200        5.54277       -2.65800
C         24.33979        6.50763       -3.40760
O         23.13785        6.47849       -3.18062
C         26.17406        6.26256       -1.64805
C         26.89332        5.20895       -0.78195
C         27.88126        5.74576        0.20885
O         28.89057        6.32254       -0.14533
O         27.73039        5.43607        1.49827
H         27.06675        4.79153       -3.52726
H         24.58292        4.86213       -2.07120
H         25.57449        6.91683       -0.97863
H         26.90444        6.89589       -2.19564
H         27.45189        4.49330       -1.41393
H         26.12013        4.63291       -0.22937
N         24.83675        7.32747       -4.37394
C         24.00743        8.18405       -5.19896
H         22.93436        8.13968       -4.91634
H         24.35469        9.23315       -5.11305
H         24.09417        7.86195       -6.25929
H         25.84303        7.30869       -4.57694
Ca        29.40140        5.59934        2.97116
O         32.19283        4.95860        1.53517
H         32.09238        4.12624        2.06239
H         32.73991        4.69342        0.75372
O         29.66961        3.16720        0.61078
H         28.89289        3.07865        0.00434
H         29.43731        2.59850        1.38564

Ca 1.0



