%chk=holoCaM-CaMKII.loop3.water1.frame449.chk
%nprocshared=20
%mem=10GB
%nosave
#b3lyp/svp scf=(tight,noincore,xqc) Test 
#IOP(5/87=12) Density=Current Pop=(MK,readradii) iop(6/33=2) iop(6/42=6)

holoCaM-CaMKII.loop3.water1.frame449 

   0  1 
C         61.00168       72.71330       30.31730
C         61.07508       74.20507       30.38265
O         61.56291       74.82270       29.44691
H         59.93576       72.40357       30.36079
H         61.44393       72.34032       29.36968
H         61.54773       72.27285       31.17638
N         60.59083       74.85343       31.47578
C         60.53821       76.30011       31.59034
C         61.45045       76.73247       32.72029
O         61.27515       76.31267       33.85561
C         59.06810       76.69315       31.73728
C         58.75157       78.15153       31.70968
O         59.67873       79.12302       31.77291
O         57.57744       78.46851       31.69018
H         60.21171       74.29333       32.25602
H         60.89529       76.76767       30.65005
H         58.63941       76.25489       32.66476
H         58.53545       76.25371       30.86571
N         62.51666       77.52170       32.42414
C         63.59469       77.86254       33.34369
C         63.08191       78.63921       34.54416
O         63.44666       78.29824       35.66063
C         64.69058       78.60874       32.54099
C         66.08980       78.60915       33.18099
C         67.12527       79.09631       32.14170
C         68.58918       78.88995       32.56159
N         68.96912       79.71185       33.70726
H         62.60719       77.84017       31.44898
H         64.05417       76.90931       33.69066
H         64.36044       79.63478       32.26749
H         64.81846       78.02817       31.59924
H         66.34773       77.56002       33.44607
H         66.10684       79.22665       34.10350
H         66.94048       80.16136       31.88327
H         66.99866       78.49459       31.21359
H         69.23658       79.16242       31.69738
H         68.76781       77.81474       32.78826
H         68.82281       80.72275       33.48368
H         68.41661       79.44300       34.55143
H         69.98382       79.55518       33.90762
N         62.17762       79.65196       34.39020
C         61.62775       80.42492       35.50422
C         60.13198       80.15886       35.73622
O         59.57203       80.76210       36.64138
C         61.97760       81.91432       35.30087
C         61.38962       82.51660       34.05683
O         62.11612       82.91309       33.15998
O         60.06248       82.66396       33.94265
H         61.84853       79.87648       33.43895
H         62.12045       80.12854       36.45657
H         63.08615       81.98897       35.24204
H         61.64686       82.51224       36.17704
N         59.44526       79.20615       35.03381
C         58.08369       78.77937       35.34887
C         56.96570       79.77102       35.05752
O         55.82677       79.42129       35.33533
H         59.93870       78.66035       34.31732
H         58.04306       78.49535       36.42465
H         57.85865       77.86226       34.76201
N         57.17975       81.01103       34.53031
C         56.10531       81.99135       34.35547
C         55.03109       81.63231       33.31984
O         54.04837       82.36011       33.27532
C         56.65669       83.41452       34.05302
C         57.51700       83.56377       32.77816
N         57.60941       84.95976       32.36624
O         57.05381       82.76709       31.73710
H         58.14222       81.29588       34.33735
H         55.58132       82.06670       35.33460
H         57.27265       83.76329       34.90884
H         55.78088       84.09560       33.98613
H         56.65203       85.30878       32.12796
H         58.18560       85.01253       31.49793
N         55.12642       80.58063       32.45256
C         54.07460       80.26504       31.48686
C         54.50093       80.31040       30.02941
O         53.63309       80.07787       29.19807
H         55.94967       79.97377       32.48906
H         53.21759       80.96427       31.58474
H         53.68928       79.24524       31.70272
N         55.78291       80.55319       29.61876
C         56.15823       80.49888       28.20141
C         57.64752       80.29155       27.99814
O         58.42977       80.56804       28.89811
C         55.60772       81.71642       27.40917
C         56.20322       83.05974       27.79735
C         57.51909       83.40109       27.42972
C         55.42828       84.00787       28.49127
C         58.04409       84.65864       27.74916
C         55.96015       85.26075       28.81908
C         57.26995       85.59116       28.44550
O         57.79122       86.79955       28.74251
H         56.51060       80.67944       30.33079
H         55.69680       79.57032       27.79607
H         54.50937       81.74893       27.56192
H         55.76104       81.57363       26.31744
H         58.13598       82.70732       26.87452
H         54.41104       83.77951       28.78233
H         59.05316       84.91245       27.44791
H         55.35109       85.97708       29.35670
H         57.28757       87.47746       29.21586
N         58.09976       79.73082       26.83637
C         59.50946       79.45847       26.58190
C         59.97876       80.11872       25.29790
O         59.16859       80.53691       24.48153
C         59.86066       77.93510       26.59262
C         59.23088       77.06510       25.46581
C         59.61830       77.31920       27.97719
C         57.77463       76.61757       25.65717
H         57.41146       79.48435       26.11422
H         60.11116       79.92193       27.39348
H         60.95883       77.88662       26.41715
H         59.81902       76.12219       25.41038
H         59.34828       77.57742       24.48777
H         60.19122       77.87595       28.74166
H         58.54524       77.36100       28.25731
H         59.95301       76.26147       27.98956
H         57.67283       75.99764       26.57271
H         57.05890       77.45095       25.70919
H         57.47838       75.98127       24.79689
N         61.31382       80.29514       25.10247
C         61.90798       80.96346       23.95192
C         63.10511       80.15760       23.44966
O         63.31761       79.05407       23.92477
C         62.31694       82.37570       24.39643
O         61.17620       83.06019       24.84847
H         61.95042       80.02312       25.86624
H         61.17480       81.08236       23.12309
H         62.76107       82.92142       23.53460
H         63.06318       82.32363       25.21793
H         61.30883       84.02245       24.64675
N         63.95441       80.65555       22.50741
C         65.14623       79.94582       22.04187
C         66.09577       79.60294       23.18418
O         66.46842       78.44509       23.31135
C         65.89231       80.79638       21.00617
H         63.75921       81.58710       22.11277
H         64.83752       79.00342       21.53618
H         65.22764       81.01286       20.14312
H         66.22446       81.75987       21.44953
H         66.78424       80.24971       20.63113
N         66.52670       80.56284       24.05170
C         67.48786       80.31549       25.12765
C         67.04215       79.20247       26.05716
O         67.80209       78.26849       26.27313
C         67.70376       81.59593       25.94665
H         66.15515       81.51848       23.93461
H         68.46769       80.03440       24.68089
H         68.45543       81.41817       26.74613
H         68.07683       82.41133       25.29202
H         66.75483       81.92832       26.42091
N         65.81593       79.24403       26.64238
C         65.32931       78.23641       27.58423
C         65.35100       76.85965       26.94316
O         65.99212       75.96453       27.47662
C         63.90325       78.59788       28.05666
C         63.88102       79.92762       28.83656
C         62.47899       80.35234       29.15412
O         62.05128       81.41530       28.73349
O         61.68628       79.57233       29.90528
H         65.20207       80.03106       26.38620
H         65.98965       78.21629       28.48131
H         63.50668       77.79412       28.71669
H         63.24390       78.66940       27.16822
H         64.35092       80.74139       28.24869
H         64.45981       79.81540       29.77686
N         64.70105       76.63017       25.77251
C         64.73431       75.35294       25.09622
H         64.16837       75.41889       24.14196
H         65.78430       75.07478       24.86181
H         64.27236       74.57167       25.73453
H         64.18437       77.39673       25.33236
Ca        58.60925       81.10276       31.86828
O         60.23569       83.76068       30.09715
H         60.24224       84.72388       30.32569
H         60.59053       83.72736       29.17380

Ca 1.0



