%chk=holoCaM.loop2.water2.frame87.chk
%nprocshared=20
%mem=10GB
%nosave
#b3lyp/svp scf=(tight,noincore,xqc) Test 
#IOP(5/87=12) Density=Current Pop=(MK,readradii) iop(6/33=2) iop(6/42=6)

holoCaM.loop2.water2.frame87 

   -2  1 
C         84.50876       23.04979        2.90730
C         83.73829       24.08011        2.13061
O         84.28478       24.65686        1.20429
H         85.40594       23.50881        3.36859
H         83.88706       22.59740        3.70973
H         84.82477       22.23492        2.22078
N         82.43693       24.33142        2.43135
C         81.58555       25.21393        1.64269
C         82.00967       26.67460        1.75773
O         82.11540       27.16492        2.87370
C         80.12491       25.06780        2.12382
C         79.12303       25.63049        1.15859
O         77.81559       25.59752        1.47331
O         79.46907       26.05150        0.06666
H         82.01251       23.80614        3.21193
H         81.62452       24.86232        0.58810
H         80.01031       25.54494        3.12177
H         79.86979       23.99243        2.22595
N         82.20602       27.44391        0.64481
C         82.54815       28.86613        0.70016
C         81.46858       29.76821        0.09937
O         81.62203       30.97799        0.20326
C         83.87135       29.09914       -0.03981
H         82.08393       27.00706       -0.27802
H         82.68126       29.18512        1.75631
H         83.76440       28.83307       -1.11385
H         84.17699       30.16584        0.02374
H         84.67701       28.47679        0.40275
N         80.38840       29.27762       -0.58159
C         79.42195       30.13608       -1.27067
C         77.96086       29.70244       -1.10679
O         77.10284       30.37080       -1.66770
C         79.81827       30.25253       -2.76098
C         79.87312       28.96205       -3.54026
O         79.59584       27.77537       -2.97005
O         80.19610       28.99328       -4.71636
H         80.32593       28.26732       -0.73458
H         79.47968       31.17125       -0.86643
H         80.82920       30.71335       -2.80884
H         79.11170       30.94419       -3.26941
N         77.58378       28.62720       -0.35472
C         76.19395       28.22162       -0.17443
C         75.49235       27.70826       -1.42637
O         74.30479       27.43239       -1.32885
H         78.29194       28.10920        0.17140
H         75.62650       29.08847        0.22804
H         76.14439       27.41147        0.58364
N         76.12223       27.56548       -2.63043
C         75.41971       27.19047       -3.86037
C         74.94253       25.73026       -3.93288
O         74.40004       25.36011       -4.96545
C         76.25037       27.58503       -5.10615
C         77.53680       26.84587       -5.35298
N         78.24716       27.13947       -6.46673
O         77.93986       25.99317       -4.57781
H         77.11268       27.82341       -2.70243
H         74.51736       27.83685       -3.93926
H         76.49139       28.66909       -5.03987
H         75.61328       27.43820       -6.00450
H         77.91666       27.85957       -7.12442
H         79.11983       26.65167       -6.69142
N         75.05063       24.85755       -2.88777
C         74.52894       23.49442       -2.92478
C         75.39522       22.49737       -3.68033
O         75.02410       21.33261       -3.71067
H         75.42799       25.18407       -1.99184
H         73.49022       23.50204       -3.32427
H         74.47432       23.11602       -1.88146
N         76.56159       22.85691       -4.28695
C         77.45589       21.92646       -4.97165
C         78.86307       22.03043       -4.41966
O         79.40133       23.12655       -4.38303
C         77.53701       22.25169       -6.48485
C         76.24455       21.92190       -7.22193
O         77.84953       23.60682       -6.69596
H         76.84203       23.84268       -4.27036
H         77.10935       20.87252       -4.88020
H         78.31609       21.59692       -6.94953
H         78.83579       23.67428       -6.77783
H         76.01101       20.84102       -7.11104
H         75.40041       22.52619       -6.83280
H         76.37841       22.13708       -8.30425
N         79.57629       20.91165       -4.10320
C         81.02585       20.95963       -3.91910
C         81.64208       21.46417       -5.21567
O         81.38813       20.89870       -6.27128
C         81.60826       19.56555       -3.52389
C         81.16597       19.22945       -2.07492
C         83.15361       19.55429       -3.63077
C         81.55896       17.82705       -1.60780
H         79.10571       19.99362       -4.12359
H         81.28379       21.66342       -3.09650
H         81.21940       18.79957       -4.23138
H         80.06103       19.30191       -1.99702
H         81.60741       19.97370       -1.37401
H         83.60482       20.32147       -2.96617
H         83.57545       18.56168       -3.38232
H         83.47930       19.75223       -4.67315
H         81.09469       17.06251       -2.26471
H         82.65794       17.68591       -1.59282
H         81.19541       17.67494       -0.56967
N         82.50697       22.51073       -5.17918
C         83.19568       23.05533       -6.34066
C         84.64814       22.62120       -6.30176
O         85.02828       21.90613       -5.38406
C         83.03462       24.58795       -6.31617
C         81.60933       24.97697       -6.60934
O         80.76992       25.38182       -5.63484
O         81.18803       24.88511       -7.75099
H         82.75197       22.90603       -4.25798
H         82.78499       22.64516       -7.29040
H         83.68071       25.09056       -7.06696
H         83.34565       24.96068       -5.31454
N         85.50531       22.93687       -7.31281
C         86.88095       22.45105       -7.35732
C         87.72450       22.98761       -6.20220
O         88.34787       22.16458       -5.55114
C         87.52666       22.67825       -8.74140
C         88.94655       22.15145       -8.80568
C         89.24088       20.80705       -8.49987
C         89.99654       23.01008       -9.17400
C         90.55839       20.34219       -8.54924
C         91.31077       22.53674       -9.23313
C         91.59218       21.20558       -8.91714
H         85.14657       23.49016       -8.10785
H         86.83970       21.34371       -7.25013
H         87.50573       23.74724       -9.02052
H         86.91695       22.13803       -9.49824
H         88.45945       20.11568       -8.21415
H         89.79911       24.04576       -9.42004
H         90.77786       19.31115       -8.30224
H         92.11208       23.20371       -9.52269
H         92.61101       20.84274       -8.95844
N         87.79482       24.31266       -5.84325
C         88.56058       24.79352       -4.69119
C         88.19616       24.16437       -3.34864
O         88.85669       24.47902       -2.36656
C         88.20265       26.28512       -4.62114
C         87.95976       26.62364       -6.06943
C         87.16544       25.40946       -6.54452
H         89.63585       24.62351       -4.91973
H         87.21396       26.40454       -4.11751
H         88.94373       26.91760       -4.08721
H         87.46376       27.60015       -6.25314
H         88.95119       26.62040       -6.57795
H         86.09583       25.45806       -6.24570
H         87.26680       25.36473       -7.64260
N         87.13159       23.32172       -3.21493
C         86.66355       22.77159       -1.95081
C         86.75893       21.25193       -1.93022
O         86.68622       20.68348       -0.85061
C         85.20042       23.21567       -1.74900
C         85.08605       24.75033       -1.82495
C         83.68455       25.24256       -1.93550
O         82.64125       24.40155       -1.92635
O         83.49635       26.41694       -2.20630
H         86.55469       23.12013       -4.03361
H         87.28994       23.15615       -1.11632
H         84.78714       22.83902       -0.78887
H         84.60145       22.77173       -2.57803
H         85.55719       25.09992       -2.76614
H         85.60712       25.23118       -0.97348
N         86.91033       20.51977       -3.07276
C         87.04851       19.08218       -3.06696
H         87.98373       18.80184       -2.53926
H         86.17446       18.61135       -2.57169
H         87.10869       18.70918       -4.11312
H         86.91614       20.97409       -3.98947
Ca        81.19734       25.09122       -3.46035
O         80.03336       22.79478       -0.49042
H         79.96696       22.34380        0.38784
H         80.92661       22.54400       -0.83233
O         77.74684       23.96966       -1.63034
H         77.48317       24.74643       -1.07814
H         77.18813       23.22607       -1.29100

Ca 1.0



