%chk=holoCaM.loop4.water3.frame399.chk
%nprocshared=20
%mem=10GB
%nosave
#b3lyp/svp scf=(tight,noincore,xqc) Test 
#IOP(5/87=12) Density=Current Pop=(MK,readradii) iop(6/33=2) iop(6/42=6)

holoCaM.loop4.water3.frame399 

   -3  1 
C         82.65965       62.81308       90.89408
C         82.53998       63.45724       92.23826
O         81.42352       63.54035       92.73192
H         82.27478       61.77260       90.95683
H         82.04405       63.37828       90.16227
H         83.71116       62.78979       90.54603
N         83.63314       63.95639       92.89444
C         83.50097       64.57830       94.20482
C         84.77986       65.27369       94.66619
O         85.84292       64.66930       94.64808
C         83.08453       63.53742       95.27555
C         82.45043       64.20338       96.46304
O         82.06433       63.53119       97.40325
O         82.17718       65.52129       96.41443
H         84.55586       63.92074       92.43603
H         82.69799       65.34149       94.09687
H         83.95772       62.91496       95.56835
H         82.30348       62.85242       94.89085
N         84.70657       66.53140       95.18597
C         85.82823       67.30085       95.70984
C         85.71132       67.42560       97.22820
O         86.69547       67.17235       97.90909
C         85.83553       68.73290       95.08188
C         85.83997       68.68394       93.53468
C         87.04159       69.54917       95.60115
C         85.59890       70.05513       92.89294
H         83.78373       66.96944       95.23999
H         86.79558       66.80516       95.46539
H         84.89818       69.24321       95.39933
H         85.01464       68.03518       93.19185
H         86.78950       68.24635       93.15899
H         87.03403       69.62227       96.70789
H         87.99513       69.07309       95.28552
H         87.02239       70.59113       95.22693
H         84.64198       70.48785       93.25819
H         86.42210       70.76481       93.10730
H         85.53041       69.93983       91.79203
N         84.55651       67.86179       97.81957
C         84.46636       68.25869       99.22682
C         83.68621       67.29589      100.12430
O         83.60503       67.56933      101.31429
C         83.93551       69.71214       99.30628
C         82.52288       69.91998       98.81646
O         81.77241       68.89504       98.38191
O         82.04684       71.04329       98.81605
H         83.72605       67.99361       97.22862
H         85.48752       68.28042       99.66649
H         84.60625       70.35567       98.69535
H         83.98663       70.06555      100.35782
N         83.16488       66.12014       99.66907
C         82.59765       65.10528      100.55533
C         81.29056       65.45681      101.25019
O         80.83232       64.63200      102.02902
H         83.27541       65.87463       98.67767
H         83.35616       64.85969      101.33160
H         82.41477       64.17971       99.97057
N         80.62715       66.62843      101.04341
C         79.39005       66.97612      101.74437
C         78.23755       66.00005      101.50067
O         77.56915       65.64900      102.46258
C         78.94917       68.44171      101.47705
C         78.75016       68.87986      100.05048
O         79.02623       68.15542       99.11596
O         78.30751       70.12586       99.80104
H         81.02811       67.31287      100.39034
H         79.59126       66.95705      102.83993
H         79.71643       69.12131      101.90357
H         77.99827       68.61521      102.02699
N         77.93175       65.54107      100.25623
C         76.75605       64.72525       99.95509
C         75.88685       65.36200       98.88078
O         74.88413       64.76421       98.51093
H         78.55959       65.78132       99.48091
H         76.13227       64.55750      100.85964
H         77.08937       63.73333       99.58991
N         76.21141       66.56389       98.32631
C         75.47444       67.24971       97.28077
C         76.37562       67.42823       96.06256
O         77.52692       67.00599       96.09583
C         75.05280       68.63925       97.81369
C         74.20413       68.55583       99.09136
C         73.86774       69.93747       99.59297
N         74.28915       70.35452      100.81073
O         73.20925       70.69061       98.89108
H         77.03859       67.06041       98.65670
H         74.57086       66.67287       96.98172
H         74.47766       69.18579       97.03692
H         75.97168       69.22599       98.04275
H         74.77048       68.00991       99.87648
H         73.26495       67.99817       98.88900
H         74.84887       69.73926      101.41925
H         74.05911       71.30141      101.14710
N         75.92334       68.07768       94.95711
C         76.73808       68.37144       93.78330
C         76.88331       69.87657       93.64733
O         75.88695       70.58898       93.65516
C         76.12447       67.70851       92.51837
C         76.75283       68.23609       91.21502
C         76.33745       66.18552       92.57930
H         74.94736       68.41505       94.94944
H         77.76007       67.95714       93.88801
H         75.03658       67.93416       92.47360
H         76.55242       69.32165       91.09627
H         77.84865       68.06727       91.20563
H         76.30393       67.72769       90.33552
H         75.88381       65.75225       93.49379
H         75.88630       65.69250       91.69247
H         77.42675       65.95211       92.58219
N         78.12079       70.41235       93.44313
C         78.38295       71.82675       93.21576
C         78.55127       72.06146       91.72572
O         78.63381       71.10201       90.97757
C         79.65547       72.20718       94.01591
C         80.11664       73.63527       93.87627
N         79.33008       74.66204       94.26591
O         81.22975       73.86660       93.42740
H         78.91764       69.76769       93.33764
H         77.50864       72.42889       93.54597
H         80.48561       71.53994       93.68509
H         79.47370       72.01023       95.09245
H         78.39508       74.48855       94.65958
H         79.66287       75.63325       94.17467
N         78.54244       73.31797       91.20486
C         78.67289       73.57511       89.76886
C         80.05555       73.21580       89.23374
O         80.23292       73.19684       88.02403
C         78.26592       75.03099       89.45064
C         79.07716       76.07204       90.19173
C         78.51181       76.73963       91.29366
C         80.38615       76.39389       89.79694
C         79.24378       77.69842       91.99529
C         81.11207       77.36882       90.49144
C         80.54287       78.02107       91.59608
O         81.23012       78.95908       92.27824
H         78.37791       74.10241       91.84944
H         77.93751       72.92409       89.24409
H         77.20304       75.11606       89.76855
H         78.28279       75.23850       88.35884
H         77.50691       76.50520       91.62317
H         80.83952       75.90535       88.94435
H         78.79765       78.19151       92.85003
H         82.11543       77.61762       90.17016
H         82.12786       79.22194       92.03135
N         81.08439       72.93066       90.07877
C         82.41087       72.51927       89.64569
C         82.37737       71.02742       89.33836
O         82.78951       70.60620       88.26764
C         83.41212       72.83799       90.78857
C         84.90404       72.70507       90.43955
C         85.37543       73.75010       89.45966
O         84.96975       73.76117       88.30933
O         86.27166       74.67701       89.85102
H         80.93137       73.01712       91.09025
H         82.70622       73.11977       88.76360
H         83.18895       72.18307       91.65953
H         83.25427       73.88855       91.12164
H         85.14112       71.68787       90.06604
H         85.46876       72.86426       91.38494
N         81.84671       70.18139       90.26708
C         81.73067       68.72820       90.14368
C         80.88885       68.35137       88.93344
O         81.37613       67.63176       88.07277
C         81.09517       68.15763       91.44008
C         81.99008       68.40943       92.67531
C         81.31275       68.12812       93.98668
O         81.93582       68.44808       95.13472
O         80.18440       67.67388       94.03105
H         81.47802       70.61991       91.12279
H         82.74275       68.27905       90.02918
H         80.91053       67.06397       91.34870
H         80.11794       68.66184       91.59000
H         82.29374       69.47145       92.72746
H         82.90436       67.79179       92.58714
N         79.61492       68.80848       88.79798
C         78.77531       68.48350       87.66646
H         77.79322       68.99527       87.76911
H         79.25360       68.82617       86.72484
H         78.59987       67.38832       87.62459
H         79.22342       69.41765       89.51902
Ca        80.57412       66.55494       97.57244
O         79.27304       65.06439       94.82132
H         80.20693       65.15029       94.50702
H         78.84392       64.46775       94.15926
O         79.22488       69.62566       96.46947
H         79.92819       70.24531       96.78797
H         78.39097       69.96399       96.88207
O         79.23725       63.91369       97.73111
H         78.84671       63.12430       98.17840
H         79.88363       64.25971       98.39514

Ca 1.0



