%chk=holoCaM.loop4.water3.frame360.chk
%nprocshared=20
%mem=10GB
%nosave
#b3lyp/svp scf=(tight,noincore,xqc) Test 
#IOP(5/87=12) Density=Current Pop=(MK,readradii) iop(6/33=2) iop(6/42=6)

holoCaM.loop4.water3.frame360 

   -3  1 
C         90.66791        4.76268       65.90309
C         89.68922        5.01311       64.79770
O         89.80786        6.02961       64.12735
H         91.41667        5.58327       65.95465
H         90.13150        4.70966       66.87291
H         91.20017        3.80690       65.71874
N         88.67496        4.13169       64.55793
C         87.69043        4.34245       63.50037
C         86.57130        3.31630       63.58362
O         86.84821        2.13528       63.75380
C         88.33232        4.26842       62.09138
C         87.52277        5.01133       61.05118
O         87.90958        5.03474       59.89693
O         86.48048        5.78430       61.42899
H         88.58908        3.31198       65.17947
H         87.27312        5.36176       63.66585
H         88.50361        3.20697       61.80727
H         89.32061        4.76904       62.08274
N         85.27920        3.69841       63.41159
C         84.13363        2.80760       63.52533
C         83.51169        2.54082       62.15494
O         83.12859        1.40371       61.92611
C         83.11188        3.41070       64.54172
C         83.78560        3.57180       65.93430
C         81.84332        2.53853       64.64926
C         82.92625        4.30949       66.96535
H         85.09142        4.68511       63.19523
H         84.44143        1.81447       63.92805
H         82.80589        4.41407       64.17215
H         84.71814        4.16255       65.82586
H         84.06386        2.57319       66.33782
H         81.09817        2.99244       65.33228
H         81.33883        2.45110       63.66516
H         82.09601        1.52081       65.01610
H         82.66020        5.32100       66.59190
H         82.00157        3.74993       67.20865
H         83.50276        4.42389       67.90808
N         83.35932        3.51978       61.20807
C         82.62088        3.29578       59.95647
C         83.45198        3.40432       58.68261
O         82.89784        3.12917       57.62263
C         81.42290        4.26716       59.89841
C         81.79164        5.73009       59.79693
O         82.95553        6.09488       59.73654
O         80.81278        6.65228       59.75916
H         83.73155        4.45730       61.40067
H         82.20745        2.26466       59.95011
H         80.81053        4.12039       60.81362
H         80.79158        4.01508       59.01935
N         84.75626        3.78753       58.67317
C         85.54174        3.86720       57.45145
C         84.98243        4.86661       56.46071
O         84.69798        4.48368       55.33605
H         85.22669        4.02027       59.55995
H         85.59588        2.86003       56.98012
H         86.57768        4.17882       57.69972
N         84.83556        6.17671       56.80900
C         84.41403        7.21655       55.86636
C         85.51096        8.25666       55.64106
O         85.30098        9.14986       54.82881
C         83.06658        7.85406       56.29556
C         83.01505        8.53394       57.63994
O         83.97368        8.54723       58.38878
O         81.87082        9.12457       58.03224
H         85.06812        6.44425       57.77524
H         84.22864        6.76907       54.86605
H         82.29016        7.05965       56.29931
H         82.77695        8.60528       55.52862
N         86.70486        8.20953       56.30150
C         87.77931        9.17026       56.10597
C         87.76721       10.26729       57.14927
O         88.64604       11.11508       57.10724
H         86.86669        7.48394       57.00886
H         87.70167        9.65343       55.10798
H         88.74883        8.62735       56.13033
N         86.76442       10.35705       58.06964
C         86.60409       11.46133       59.00001
C         86.51103       10.92069       60.44747
O         85.37786       10.09651       60.55487
C         85.32907       12.25016       58.60403
C         85.46664       12.87424       57.20374
C         84.21369       13.59688       56.78514
N         83.05632       12.92023       56.59539
O         84.24832       14.80291       56.59210
H         86.02365        9.65233       58.06968
H         87.47211       12.15444       58.94731
H         85.14621       13.07111       59.33085
H         84.45280       11.56540       58.62692
H         85.67747       12.09480       56.44124
H         86.32128       13.58619       57.22147
H         83.01206       11.89967       56.73140
H         82.20399       13.41587       56.29458
N         86.39072       12.04531       61.39474
C         86.49274       11.67401       62.82066
C         85.28068       12.24651       63.52849
O         85.13791       13.45963       63.60376
C         87.81552       12.19968       63.46726
C         87.85089       11.98149       64.99135
C         89.04165       11.52210       62.84260
H         87.02855       12.83969       61.15337
H         86.46828       10.56719       62.93189
H         87.89080       13.29587       63.28888
H         87.02614       12.53150       65.48957
H         87.76781       10.90350       65.24049
H         88.80082       12.37537       65.41214
H         89.02570       10.43770       63.06410
H         89.07069       11.66973       61.74360
H         89.97496       11.94491       63.27108
N         84.34881       11.40666       64.05587
C         83.14784       11.86221       64.74628
C         83.47589       12.21324       66.19516
O         84.60874       12.03816       66.62000
C         82.09305       10.72441       64.64759
C         80.70785       11.04923       65.14705
N         79.99865       12.07112       64.61552
O         80.20481       10.35935       66.01999
H         84.47448       10.39355       63.91224
H         82.74217       12.75023       64.21451
H         82.47944        9.82455       65.17631
H         81.97422       10.46605       63.57572
H         80.39331       12.65714       63.86675
H         79.04631       12.27357       64.95298
N         82.51364       12.71092       67.01672
C         82.67718       12.89033       68.45902
C         82.88992       11.54598       69.15633
O         83.76710       11.46444       70.00390
C         81.51699       13.74040       69.04435
C         80.11888       13.31329       68.64989
C         79.40535       14.08357       67.71094
C         79.51280       12.17270       69.19236
C         78.12616       13.70533       67.30386
C         78.22394       11.79855       68.78892
C         77.53120       12.56055       67.83630
O         76.29754       12.20484       67.42535
H         81.60898       12.94692       66.59378
H         83.58437       13.50697       68.65705
H         81.67971       14.75987       68.62898
H         81.60234       13.84342       70.14805
H         79.84755       14.97096       67.27473
H         80.03505       11.57896       69.92852
H         77.60118       14.30145       66.56785
H         77.76437       10.91514       69.21275
H         75.85061       11.41453       67.75930
N         82.18101       10.43123       68.80510
C         82.42207        9.10454       69.38708
C         83.80235        8.53319       69.04233
O         84.13128        7.47912       69.57039
C         81.36408        8.07927       68.89740
C         79.92040        8.41085       69.30155
C         79.74341        8.42913       70.79433
O         79.35353        9.43929       71.35696
O         80.00469        7.32393       71.51848
H         81.44976       10.53386       68.09333
H         82.35135        9.19137       70.49341
H         81.59866        7.07226       69.30917
H         81.41743        8.00762       67.78793
H         79.24512        7.63434       68.88307
H         79.62126        9.37925       68.86102
N         84.64728        9.13915       68.15871
C         85.94618        8.60123       67.76329
C         87.09426        9.52087       68.16317
O         88.23708        9.14379       67.94085
C         85.97593        8.42119       66.23240
C         84.84564        7.52278       65.71322
C         84.83816        7.44084       64.21267
O         83.95268        6.82167       63.64783
O         85.77914        8.06399       63.47873
H         84.34856       10.00208       67.70447
H         86.12414        7.61828       68.25209
H         86.95508        7.99189       65.92178
H         85.86778        9.42501       65.76465
H         83.86682        7.94102       66.02698
H         84.95427        6.50478       66.13942
N         86.88844       10.73968       68.73909
C         87.98160       11.61480       69.09946
H         88.58100       11.86441       68.19824
H         87.58292       12.55796       69.53113
H         88.62831       11.12202       69.85539
H         85.93863       11.08014       68.92096
Ca        85.89212        7.83897       60.61797
O         88.42531        8.21960       62.12983
H         88.63978        7.25638       62.14271
H         89.04796        8.59959       61.46163
O         82.88881        9.07294       61.63943
H         82.70653        8.13268       61.39455
H         82.60435        9.59747       60.84962
O         88.52576        7.66837       59.02198
H         89.45918        7.99214       58.99189
H         88.52264        6.89159       58.40986

Ca 1.0



