%chk=holoCaM.loop3.water2.frame314.chk
%nprocshared=20
%mem=10GB
%nosave
#b3lyp/svp scf=(tight,noincore,xqc) Test 
#IOP(5/87=12) Density=Current Pop=(MK,readradii) iop(6/33=2) iop(6/42=6)

holoCaM.loop3.water2.frame314 

   0  1 
C        -12.67886       40.78395       79.37081
C        -12.48609       42.23968       79.67981
O        -13.22755       42.76706       80.49312
H        -13.69171       40.62787       78.94332
H        -11.92887       40.42108       78.63644
H        -12.57776       40.18908       80.30217
N        -11.49238       42.94652       79.07211
C        -11.22430       44.36416       79.29874
C        -12.12556       45.21116       78.40011
O        -11.63632       45.83919       77.47130
C         -9.71798       44.60901       79.03646
C         -9.27914       45.99407       79.39865
O         -8.74482       46.70144       78.56319
O         -9.42802       46.44302       80.65781
H        -10.86375       42.43463       78.43310
H        -11.40270       44.62066       80.36633
H         -9.47375       44.39261       77.97300
H         -9.12537       43.91207       79.65896
N        -13.47538       45.23557       78.59585
C        -14.40206       45.91776       77.69675
C        -14.37294       47.43524       77.83067
O        -15.04396       48.07716       77.03361
C        -15.84545       45.41242       77.91489
C        -15.96636       43.89857       77.66257
C        -17.40734       43.41738       77.86896
C        -17.54829       41.88927       77.75593
N        -17.20586       41.38592       76.42457
H        -13.86725       44.69872       79.37557
H        -14.12462       45.65420       76.65054
H        -16.52578       45.93454       77.20528
H        -16.16863       45.65109       78.95211
H        -15.31116       43.34200       78.36375
H        -15.63919       43.68196       76.62338
H        -18.08046       43.91544       77.13723
H        -17.73197       43.70466       78.89296
H        -18.60519       41.62419       77.97912
H        -16.90463       41.39634       78.51854
H        -16.19297       41.53697       76.21893
H        -17.38988       40.35702       76.39658
H        -17.79481       41.85433       75.69858
N        -13.62794       48.08755       78.77549
C        -13.54320       49.54790       78.83393
C        -12.16499       50.03968       78.39228
O        -11.98591       51.24452       78.27968
C        -13.95310       50.10510       80.21664
C        -12.99095       49.73572       81.30017
O        -12.88330       48.47093       81.73717
O        -12.26762       50.59364       81.78228
H        -13.06093       47.54079       79.43745
H        -14.25553       49.99300       78.10724
H        -14.97685       49.78039       80.49873
H        -13.96376       51.21455       80.13235
N        -11.16507       49.17097       78.06094
C         -9.90700       49.57964       77.46996
C         -9.07247       50.44081       78.37639
O         -8.73240       51.54139       77.96554
H        -11.30519       48.16042       78.15942
H        -10.11286       50.10937       76.51402
H         -9.31304       48.67919       77.21470
N         -8.66330       49.99346       79.60188
C         -7.75542       50.76544       80.45345
C         -6.41870       50.05322       80.66162
O         -5.50833       50.67353       81.19278
C         -8.46698       51.18154       81.76683
C         -8.56123       50.13250       82.89919
N         -7.38682       50.17306       83.76033
O         -8.70495       48.84096       82.39709
H         -9.00038       49.07496       79.92235
H         -7.51420       51.71515       79.92964
H         -9.49320       51.50885       81.49324
H         -7.96698       52.08075       82.18775
H         -7.30719       51.12722       84.17921
H         -7.56015       49.52080       84.55638
N         -6.22642       48.75469       80.27074
C         -4.96849       48.03458       80.38207
C         -5.01653       46.94233       81.43429
O         -4.08383       46.15601       81.49492
H         -7.00535       48.21320       79.87705
H         -4.12397       48.70848       80.64239
H         -4.74650       47.59187       79.38687
N         -6.00632       46.91255       82.37511
C         -6.00929       46.02476       83.53039
C         -7.37350       45.40526       83.73984
O         -8.36631       46.10911       83.63420
C         -5.66701       46.81435       84.80835
C         -4.31134       47.46655       84.71526
C         -4.13293       48.64685       83.97271
C         -3.20898       46.89279       85.36514
C         -2.87244       49.23798       83.87569
C         -1.94603       47.47995       85.25999
C         -1.77375       48.65540       84.51406
O         -0.56027       49.23066       84.40339
H         -6.72241       47.63981       82.35432
H         -5.23418       45.23213       83.43681
H         -5.66703       46.08076       85.64559
H         -6.43220       47.57911       85.05578
H         -4.96817       49.11319       83.47017
H         -3.32357       45.98067       85.93746
H         -2.75101       50.14742       83.30046
H         -1.10287       47.01743       85.75582
H          0.22553       48.85420       84.82416
N         -7.48249       44.11234       84.16013
C         -8.76323       43.50238       84.51936
C         -8.77884       43.08460       85.98127
O         -7.74255       43.05336       86.62642
C         -9.09262       42.30310       83.58449
C         -7.99118       41.20708       83.63745
C         -9.31233       42.82776       82.16062
C         -8.28571       39.98469       82.76882
H         -6.62093       43.56144       84.27690
H         -9.57768       44.25090       84.41726
H        -10.05315       41.85244       83.91731
H         -7.88482       40.85511       84.68616
H         -7.01450       41.61631       83.30572
H         -8.37484       43.26998       81.76369
H         -9.65728       42.02393       81.48033
H        -10.10516       43.60486       82.16545
H         -7.47225       39.23997       82.90120
H         -9.24996       39.52100       83.06233
H         -8.31099       40.25501       81.69340
N         -9.97213       42.77484       86.56505
C        -10.12253       42.30763       87.93794
C        -10.86787       40.97839       87.94669
O        -11.24977       40.49087       86.89339
C        -10.87258       43.37290       88.76107
O        -12.16141       43.59949       88.25352
H        -10.82850       42.88968       86.00877
H         -9.13013       42.15563       88.41358
H        -10.28036       44.31857       88.77805
H        -10.96593       43.05990       89.82202
H        -12.11589       44.41924       87.69587
N        -11.12362       40.34084       89.12513
C        -11.90077       39.10606       89.20986
C        -13.30202       39.31349       88.66870
O        -13.79135       38.45501       87.94822
C        -11.97949       38.62146       90.65916
H        -10.77125       40.76222       89.99685
H        -11.39371       38.30304       88.62891
H        -12.54468       37.66511       90.70631
H        -10.95535       38.43678       91.04798
H        -12.48340       39.37223       91.30348
N        -13.99053       40.45634       88.94813
C        -15.30953       40.75628       88.40332
C        -15.29562       40.75393       86.88308
O        -16.09889       40.04555       86.29227
C        -15.79373       42.12189       88.90799
H        -13.54044       41.15858       89.55658
H        -16.03644       39.99406       88.76442
H        -16.81034       42.33746       88.51410
H        -15.84440       42.11972       90.01773
H        -15.10633       42.93332       88.58597
N        -14.40904       41.52219       86.18156
C        -14.40733       41.58835       84.71731
C        -14.11260       40.24347       84.05882
O        -14.32176       40.13431       82.85819
C        -13.37381       42.61064       84.19528
C        -13.63804       44.04773       84.66953
C        -12.58306       44.98386       84.15196
O        -12.42058       45.13000       82.95096
O        -11.81571       45.67517       85.01555
H        -13.73552       42.08919       86.71485
H        -15.42318       41.91177       84.39780
H        -13.39345       42.61042       83.08496
H        -12.36444       42.28443       84.51552
H        -13.63568       44.09881       85.77632
H        -14.63255       44.38425       84.30754
N        -13.60556       39.19046       84.75998
C        -13.33594       37.89061       84.18112
H        -12.25473       37.66052       84.28086
H        -13.91760       37.12107       84.73149
H        -13.61383       37.83645       83.10811
H        -13.37605       39.30580       85.75103
Ca       -10.83883       48.14901       82.52922
O        -12.71806       48.80862       84.99267
H        -13.61186       48.45019       85.22290
H        -12.89666       49.71871       84.64583
O         -9.64343       47.62137       85.69747
H         -9.18129       46.92466       86.22854
H         -9.37563       48.47603       86.11816

Ca 1.0



