%chk=holoCaM.loop1.water2.frame71.chk
%nprocshared=20
%mem=10GB
%nosave
#b3lyp/svp scf=(tight,noincore,xqc) Test 
#IOP(5/87=12) Density=Current Pop=(MK,readradii) iop(6/33=2) iop(6/42=6)

holoCaM.loop1.water2.frame71 

   0  1 
C         60.18648       22.69073       30.37270
C         59.43926       23.98210       30.23128
O         59.69852       24.91909       30.97306
H         60.94639       22.75631       31.17871
H         59.46532       21.88390       30.62620
H         60.68858       22.43760       29.41537
N         58.47418       24.09086       29.28096
C         57.64493       25.27709       29.10677
C         56.81629       25.49334       30.37004
O         56.03908       24.62427       30.73706
C         56.80465       25.09266       27.81945
C         55.77870       26.13922       27.46506
O         54.64250       25.76826       27.21989
O         56.07391       27.44957       27.32301
H         58.32259       23.27887       28.66068
H         58.31242       26.14560       28.93645
H         56.27360       24.11644       27.87557
H         57.52040       25.03396       26.96924
N         56.96367       26.64327       31.09051
C         56.26101       26.96727       32.32695
C         55.19232       28.02644       32.10359
O         54.58010       28.45382       33.07312
C         57.26176       27.36861       33.44845
C         58.30569       28.47804       33.17001
C         57.75561       29.83889       32.71032
C         58.89133       30.88265       32.65392
N         58.42680       32.17117       32.14125
H         57.58762       27.36139       30.72235
H         55.70424       26.08215       32.70422
H         57.84785       26.46272       33.71764
H         56.67791       27.65177       34.35125
H         59.03539       28.11543       32.41908
H         58.86544       28.62765       34.12001
H         56.97565       30.19686       33.41607
H         57.30907       29.72276       31.70203
H         59.71539       30.51775       32.00305
H         59.29903       31.02859       33.67853
H         57.62401       32.52900       32.70689
H         59.21028       32.86237       32.18278
H         58.14540       32.07228       31.14393
N         54.84834       28.42925       30.84919
C         53.78512       29.38130       30.56486
C         52.63184       28.69461       29.86487
O         51.49405       28.87477       30.27418
C         54.29681       30.47938       29.61730
C         55.43053       31.26805       30.18250
O         56.49746       31.29637       29.59198
O         55.26914       31.97596       31.31604
H         55.33308       28.01706       30.04169
H         53.40236       29.86393       31.49233
H         53.46860       31.18326       29.38254
H         54.62994       30.00842       28.66876
N         52.86186       27.95587       28.74424
C         51.82141       27.49077       27.84626
C         51.98172       28.11021       26.46062
O         51.06376       27.97722       25.66502
H         53.83217       27.76267       28.48817
H         50.82441       27.78535       28.23507
H         51.84152       26.38192       27.77051
N         53.12293       28.76994       26.08404
C         53.32436       29.41460       24.79304
C         54.13041       28.54346       23.82990
O         54.42851       29.00761       22.73762
C         53.94297       30.82204       24.99959
C         55.24619       30.83452       25.75635
O         55.36907       31.58447       26.86673
O         56.20319       30.19507       25.36051
H         53.93232       28.79273       26.70965
H         52.34874       29.57175       24.28420
H         53.21892       31.45224       25.56066
H         54.10654       31.29606       24.00929
N         54.41650       27.23765       24.10960
C         54.99916       26.32002       23.14257
C         56.47165       26.51343       22.85256
O         56.98296       25.74020       22.05619
H         54.09463       26.82705       24.99450
H         54.41814       26.37327       22.19486
H         54.89602       25.28587       23.53629
N         57.22612       27.48699       23.44011
C         58.65692       27.64060       23.17523
C         59.48489       27.58397       24.45302
O         58.95215       27.60648       25.55253
C         58.93182       28.95808       22.38855
C         58.45664       28.82923       20.94220
O         58.29685       30.07634       22.95718
H         56.78038       28.14373       24.09014
H         59.02968       26.79397       22.55906
H         60.02652       29.14869       22.34096
H         58.26106       29.94960       23.93531
H         57.36228       28.65127       20.89716
H         58.69195       29.76303       20.38770
H         58.98640       27.98971       20.44261
N         60.83859       27.46046       24.33237
C         61.79441       27.38957       25.43026
C         62.80500       28.51718       25.24481
O         63.34853       28.68492       24.16301
C         62.44886       25.97130       25.46781
C         61.37006       24.94264       25.92182
C         63.66600       25.92843       26.41422
C         61.85562       23.49532       26.02343
H         61.22897       27.38476       23.38085
H         61.29545       27.53109       26.41452
H         62.82082       25.71445       24.45145
H         60.52243       24.96229       25.20462
H         60.97787       25.23304       26.92335
H         64.43801       26.65964       26.10026
H         63.36388       26.13750       27.45640
H         64.16381       24.93866       26.37971
H         61.00560       22.84675       26.32602
H         62.24587       23.14598       25.04595
H         62.63738       23.38357       26.80275
N         63.12520       29.30213       26.30812
C         64.04189       30.43206       26.28688
C         65.38695       30.01540       26.86153
O         65.56306       28.86149       27.22366
C         63.42974       31.59531       27.12684
C         62.08547       32.06150       26.56611
O         63.26064       31.17441       28.45830
H         62.73370       29.05319       27.21475
H         64.21935       30.77493       25.24413
H         64.12005       32.46630       27.10637
H         63.06752       31.97990       29.00550
H         61.34905       31.23383       26.59417
H         61.69385       32.89950       27.18227
H         62.20399       32.41920       25.52293
N         66.38517       30.93332       26.98838
C         67.68148       30.65068       27.60251
C         67.49932       30.09533       29.00388
O         68.09773       29.08090       29.33221
C         68.54808       31.93960       27.67541
C         68.95942       32.43600       26.28557
O         67.85258       32.95705       28.35324
H         66.19475       31.89368       26.67078
H         68.23517       29.89664       26.99924
H         69.48042       31.68647       28.23345
H         68.52202       33.63037       28.64174
H         69.54078       31.65036       25.75925
H         68.07749       32.70832       25.67085
H         69.60226       33.33602       26.38910
N         66.68204       30.73074       29.88159
C         66.48158       30.31715       31.26529
C         65.84096       28.94388       31.32616
O         66.37142       28.05963       31.98381
C         65.60353       31.35807       32.00328
C         66.28298       32.74312       32.00668
C         65.43812       33.81508       32.70039
C         66.03968       35.22408       32.52598
N         67.37410       35.34988       33.11581
H         66.17240       31.55423       29.53288
H         67.46226       30.28782       31.79119
H         65.44866       31.02990       33.05494
H         64.60852       31.43298       31.51036
H         66.44952       33.09038       30.96862
H         67.26922       32.65235       32.50776
H         65.32404       33.57028       33.77824
H         64.42792       33.83106       32.23499
H         65.35879       35.95836       33.00883
H         66.09191       35.47404       31.44184
H         67.69709       36.33873       33.01098
H         67.34411       35.10714       34.13203
H         68.06069       34.73861       32.61938
N         64.68490       28.70399       30.65041
C         63.95870       27.43548       30.70080
C         64.73940       26.27663       30.07900
O         64.28663       25.14683       30.20466
C         62.62285       27.57259       29.94347
C         61.70983       28.68821       30.48828
C         60.55715       28.90511       29.55738
O         60.73764       29.25337       28.40531
O         59.31148       28.70351       29.97644
H         64.30358       29.47919       30.09296
H         63.74744       27.19816       31.76686
H         62.06006       26.61162       29.95549
H         62.88314       27.79555       28.89836
H         62.22842       29.66075       30.57539
H         61.35307       28.39853       31.49976
N         65.88495       26.47443       29.36342
C         66.64253       25.40891       28.73878
H         67.68210       25.42345       29.12820
H         66.20787       24.40617       28.93042
H         66.67235       25.57570       27.64100
H         66.24142       27.42416       29.22073
Ca        57.70612       28.51297       28.42566
O         59.49489       32.20297       28.80975
H         59.24191       33.06465       28.39307
H         60.19308       32.44370       29.46894
O         58.89023       31.59204       25.77010
H         59.49146       31.49618       24.98967
H         58.99859       32.53742       26.03743

Ca 1.0



