%chk=holoCaM.loop4.water3.frame462.chk
%nprocshared=20
%mem=10GB
%nosave
#b3lyp/svp scf=(tight,noincore,xqc) Test 
#IOP(5/87=12) Density=Current Pop=(MK,readradii) iop(6/33=2) iop(6/42=6)

holoCaM.loop4.water3.frame462 

   -3  1 
C         45.11976       67.20166       63.94935
C         45.02481       66.11220       64.97184
O         44.22356       65.20948       64.78622
H         46.14673       67.23114       63.53169
H         44.40366       67.01629       63.11804
H         44.87480       68.17726       64.41654
N         45.80311       66.13801       66.09440
C         45.73055       65.09833       67.11883
C         46.55137       65.47783       68.34484
O         47.69939       65.87841       68.21034
C         46.22920       63.73261       66.58694
C         45.70051       62.55564       67.37997
O         46.02932       61.43042       67.05006
O         44.73023       62.72070       68.30865
H         46.43204       66.94435       66.23014
H         44.65752       65.00642       67.40041
H         47.33996       63.72902       66.53801
H         45.85983       63.55665       65.55720
N         46.02423       65.30297       69.58283
C         46.68755       65.62990       70.83847
C         47.11829       64.35702       71.56821
O         48.15058       64.41012       72.22366
C         45.71807       66.51814       71.69053
C         45.55239       67.90751       71.01332
C         46.18209       66.67456       73.15264
C         44.45620       68.78107       71.63396
H         45.08819       64.89120       69.64165
H         47.62361       66.20851       70.66223
H         44.73166       66.00726       71.72636
H         45.28748       67.77285       69.94489
H         46.51931       68.45632       71.04786
H         47.17052       67.17513       73.20672
H         45.44506       67.25278       73.74520
H         46.24504       65.68393       73.64963
H         44.67620       69.03645       72.68914
H         44.38398       69.73541       71.07023
H         43.47361       68.26727       71.57853
N         46.37878       63.20604       71.55272
C         46.69649       62.04478       72.39212
C         46.98547       60.74641       71.63143
O         47.29267       59.76129       72.28973
C         45.56206       61.85304       73.42147
C         44.20981       61.51884       72.84120
O         44.04297       61.39248       71.63938
O         43.16212       61.35854       73.67006
H         45.52528       63.17710       70.98269
H         47.61734       62.24763       72.98199
H         45.46320       62.79633       74.00212
H         45.84519       61.04642       74.13071
N         46.95768       60.65832       70.27072
C         47.34356       59.45037       69.54333
C         46.40831       58.25387       69.67082
O         46.72908       57.23072       69.08218
H         46.74297       61.49817       69.71892
H         48.36229       59.14797       69.87247
H         47.40554       59.68977       68.46136
N         45.25140       58.27949       70.39290
C         44.36910       57.11670       70.51677
C         43.81598       56.61864       69.18489
O         43.68875       55.41144       69.03145
C         43.21935       57.34517       71.53149
C         42.31270       58.52442       71.29028
O         42.53396       59.33158       70.40545
O         41.25810       58.71589       72.10438
H         44.99872       59.13985       70.89203
H         44.95985       56.27744       70.94943
H         43.65641       57.47924       72.54321
H         42.59498       56.42421       71.55284
N         43.44388       57.47361       68.19303
C         42.84668       57.03615       66.93737
C         41.48175       57.65290       66.71031
O         40.93832       57.45954       65.63209
H         43.59195       58.48460       68.32252
H         42.74282       55.93156       66.87917
H         43.51512       57.34730       66.10926
N         40.86483       58.40823       67.66671
C         39.59161       59.08240       67.47495
C         39.82732       60.60215       67.63726
O         40.94448       60.95564       66.86484
C         38.56323       58.53810       68.49210
C         38.39960       57.01085       68.36494
C         37.38301       56.42866       69.31659
N         37.16843       55.09264       69.32808
O         36.75270       57.14771       70.07868
H         41.30649       58.53247       68.57977
H         39.20672       58.89921       66.44716
H         37.57473       59.01222       68.32171
H         38.90004       58.77979       69.52514
H         39.37449       56.52074       68.57564
H         38.09127       56.75964       67.32723
H         37.69569       54.47117       68.69676
H         36.47915       54.67622       69.97141
N         38.66020       61.37494       67.16580
C         38.85476       62.84200       67.20216
C         38.09702       63.46669       68.36729
O         36.87325       63.45066       68.36704
C         38.39029       63.46050       65.85118
C         38.61124       64.98110       65.81149
C         39.12824       62.82575       64.66329
H         37.76271       61.08944       67.61702
H         39.93554       63.08370       67.31144
H         37.30340       63.26191       65.71714
H         38.27071       65.39497       64.83911
H         38.01974       65.48107       66.59863
H         39.68575       65.22888       65.94899
H         38.94352       61.73228       64.62114
H         38.76364       63.26450       63.70962
H         40.21971       63.00524       64.73992
N         38.77400       64.04935       69.39496
C         38.11724       64.76069       70.48703
C         37.56222       66.08603       69.97199
O         37.83102       66.44680       68.83984
C         39.15723       64.98970       71.61664
C         38.63669       65.63735       72.87358
N         37.65079       65.06070       73.59697
O         39.13336       66.68413       73.26004
H         39.79804       63.98053       69.39842
H         37.29958       64.11977       70.88313
H         39.98594       65.60414       71.21457
H         39.57756       64.00529       71.91155
H         37.22704       64.17144       73.29806
H         37.31273       65.50670       74.46209
N         36.77148       66.86658       70.74773
C         36.31755       68.20505       70.36050
C         37.49445       69.18109       70.26522
O         37.60728       69.84938       69.24691
C         35.13248       68.67366       71.25035
C         35.28595       68.40003       72.72880
C         34.57950       67.32206       73.29852
C         36.13006       69.16584       73.53983
C         34.74355       66.99601       74.64288
C         36.29109       68.84058       74.89280
C         35.60461       67.74699       75.44447
O         35.76608       67.40508       76.73797
H         36.48713       66.47972       71.65481
H         35.86415       68.16365       69.34186
H         34.27093       68.06030       70.90247
H         34.84590       69.72856       71.04874
H         33.92108       66.71017       72.69317
H         36.66095       70.00917       73.12224
H         34.20957       66.14896       75.05541
H         36.95430       69.43221       75.50981
H         36.36708       67.88304       77.32585
N         38.45037       69.26511       71.23996
C         39.62910       70.14474       71.15159
C         40.58388       69.78708       70.00671
O         41.55802       70.50770       69.82318
C         40.45565       70.10930       72.46644
C         39.70574       70.58080       73.72556
C         39.29335       72.03222       73.71743
O         39.57240       72.77377       72.78840
O         38.62469       72.52821       74.77509
H         38.33364       68.67721       72.07179
H         39.27176       71.17904       70.97252
H         41.36150       70.74804       72.36407
H         40.80027       69.06449       72.63284
H         40.37321       70.43312       74.60092
H         38.81675       69.94814       73.88464
N         40.37745       68.72026       69.19008
C         41.24371       68.34969       68.08026
C         40.57045       68.76162       66.78556
O         41.18348       69.47413       66.00451
C         41.51974       66.83428       68.12611
C         42.23665       66.43031       69.42675
C         42.41734       64.94537       69.55797
O         42.92166       64.43239       70.69587
O         42.09875       64.19376       68.65365
H         39.55303       68.13159       69.33592
H         42.22362       68.87741       68.13282
H         42.14493       66.53544       67.25558
H         40.55146       66.28973       68.06646
H         41.64201       66.77338       70.29492
H         43.22831       66.91779       69.47347
N         39.28198       68.40199       66.52442
C         38.54334       68.82521       65.35455
H         37.67526       69.43843       65.67978
H         39.16002       69.43011       64.65933
H         38.16441       67.93308       64.81618
H         38.77192       67.83417       67.20496
Ca        42.75983       61.55133       68.17644
O         40.86558       61.91665       70.70525
H         41.50095       62.13344       71.43194
H         40.41484       61.08952       71.00731
O         43.93816       60.02966       66.06810
H         44.69489       59.39747       66.15958
H         43.40683       59.68820       65.30811
O         42.98093       63.01783       65.80106
H         42.52863       62.42402       65.15294
H         42.29734       63.68692       66.05568

Ca 1.0



