%chk=holoCaM-CaMKII.loop3.water1.frame402.chk
%nprocshared=20
%mem=10GB
%nosave
#b3lyp/svp scf=(tight,noincore,xqc) Test 
#IOP(5/87=12) Density=Current Pop=(MK,readradii) iop(6/33=2) iop(6/42=6)

holoCaM-CaMKII.loop3.water1.frame402 

   0  1 
C         41.82140       77.17508       64.07006
C         40.68435       78.13668       64.24934
O         39.62151       77.90567       63.69043
H         42.72078       77.49923       64.63537
H         41.51680       76.17386       64.44099
H         42.08414       77.10351       62.99468
N         40.82753       79.23571       65.03992
C         39.73833       80.17126       65.28483
C         39.37639       80.88561       63.98650
O         40.25489       81.50022       63.39535
C         40.16196       81.19249       66.35508
C         38.97814       81.89047       66.95241
O         38.86231       81.95568       68.16575
O         38.03110       82.43473       66.17283
H         41.73292       79.38594       65.51280
H         38.88107       79.59093       65.69061
H         40.86995       81.92667       65.91177
H         40.69522       80.68628       67.19034
N         38.11940       80.81965       63.46047
C         37.79582       81.38449       62.14923
C         37.98931       82.89752       62.05439
O         38.14342       83.38541       60.94348
C         36.37640       80.97614       61.68858
C         35.24610       81.63916       62.49707
C         33.87048       81.13615       62.03614
C         32.74103       81.82737       62.81426
N         31.43327       81.30904       62.41299
H         37.40352       80.28143       63.96909
H         38.50746       80.91331       61.43396
H         36.29146       79.86898       61.76550
H         36.24797       81.25228       60.61902
H         35.29323       82.74080       62.35923
H         35.36939       81.41627       63.57604
H         33.81071       80.03745       62.19286
H         33.73991       81.33956       60.95105
H         32.77916       82.92247       62.61978
H         32.87624       81.66252       63.90616
H         31.28469       81.45294       61.38780
H         31.36770       80.28988       62.64003
H         30.68667       81.81928       62.93812
N         37.91443       83.70630       63.15317
C         38.04957       85.16163       63.10418
C         39.12102       85.69445       64.06908
O         39.30145       86.90335       64.11991
C         36.65869       85.80195       63.29550
C         36.05944       85.60246       64.65126
O         35.05271       84.92521       64.78985
O         36.58399       86.24477       65.70880
H         37.67830       83.28170       64.05301
H         38.36533       85.47615       62.08516
H         35.98448       85.35715       62.52986
H         36.70495       86.89492       63.10387
N         39.92411       84.85976       64.79939
C         41.07358       85.31707       65.57207
C         40.78696       85.98198       66.90926
O         41.75565       86.40302       67.52707
H         39.82172       83.84322       64.69480
H         41.67845       86.00200       64.93576
H         41.71779       84.44026       65.79929
N         39.53592       86.12453       67.44272
C         39.32205       86.83195       68.71303
C         39.95117       86.10898       69.91189
O         40.21936       86.76162       70.91041
C         37.81995       87.14111       68.96487
C         37.03581       85.98520       69.60450
N         35.59598       86.15216       69.55150
O         37.44233       84.74144       69.14495
H         38.72814       85.78439       66.90896
H         39.81852       87.82091       68.58071
H         37.35919       87.47151       68.00938
H         37.73572       87.98523       69.68248
H         35.35828       87.00613       70.10494
H         35.17973       85.34264       70.06195
N         40.16678       84.75534       69.89421
C         40.80681       84.00914       70.97023
C         39.96197       82.89254       71.58399
O         40.54806       82.08403       72.28830
H         39.90479       84.21683       69.05657
H         41.15849       84.66981       71.79096
H         41.70799       83.53583       70.52361
N         38.60610       82.78990       71.42003
C         37.79241       81.72119       72.00853
C         37.00896       80.98936       70.93389
O         36.43821       81.64903       70.07556
C         36.86871       82.27232       73.12933
C         35.60909       83.01509       72.72169
C         34.52155       82.31457       72.16134
C         35.47152       84.39133       72.96728
C         33.33516       82.97614       71.83979
C         34.28026       85.05345       72.64284
C         33.21030       84.35010       72.07772
O         32.06816       85.00041       71.77527
H         38.11737       83.51766       70.90280
H         38.44961       80.99219       72.52935
H         37.50124       82.90625       73.78844
H         36.52347       81.42072       73.75628
H         34.57843       81.24751       71.98928
H         36.28235       84.95265       73.41281
H         32.51104       82.41655       71.41353
H         34.18644       86.11466       72.83446
H         31.30468       84.54693       71.38903
N         36.88052       79.62831       70.95886
C         36.06065       78.89708       69.98945
C         34.88559       78.20619       70.66957
O         34.88143       78.05154       71.88141
C         36.91451       77.88420       69.17213
C         37.51272       76.76698       70.06922
C         38.00271       78.63798       68.39010
C         38.26006       75.68628       69.28707
H         37.34610       79.10213       71.71137
H         35.61007       79.61561       69.27021
H         36.24560       77.39765       68.43265
H         36.68591       76.25672       70.60836
H         38.20596       77.19702       70.82163
H         38.55202       77.96155       67.70571
H         37.53673       79.42335       67.76346
H         38.72787       79.11857       69.08040
H         37.59031       75.22142       68.53274
H         39.15737       76.09946       68.78430
H         38.60419       74.89875       69.99035
N         33.82178       77.80502       69.91470
C         32.63833       77.13011       70.44153
C         32.37867       75.85668       69.62599
O         33.17691       75.53545       68.75929
C         31.46581       78.13436       70.38440
O         30.30875       77.64273       71.00567
H         33.82420       78.03625       68.91087
H         32.78347       76.85395       71.50849
H         31.22852       78.39622       69.33215
H         31.76044       79.07996       70.89601
H         30.49705       77.61212       71.98128
N         31.26559       75.09202       69.83416
C         30.94360       73.89013       69.06259
C         30.92717       74.15098       67.56738
O         31.50753       73.36347       66.83306
C         29.57746       73.33986       69.48845
H         30.60172       75.37640       70.56407
H         31.69973       73.10173       69.27545
H         29.34718       72.41074       68.92308
H         29.58600       73.09496       70.57145
H         28.77561       74.08437       69.29380
N         30.29529       75.23889       67.04410
C         30.27103       75.53296       65.61372
C         31.67554       75.65777       65.04103
O         31.98784       74.94259       64.09905
C         29.48210       76.82049       65.34521
H         29.82357       75.88795       67.69370
H         29.74101       74.70746       65.08645
H         28.44142       76.71073       65.71844
H         29.95146       77.69018       65.85232
H         29.43911       77.02255       64.25306
N         32.57722       76.54333       65.55823
C         33.92250       76.71856       65.00127
C         34.78123       75.46194       65.09217
O         35.81772       75.42531       64.44205
C         34.67172       77.86040       65.71813
C         34.02046       79.22891       65.49365
C         34.73546       80.29801       66.26659
O         34.06951       81.02996       67.17876
O         35.91865       80.51491       66.06963
H         32.28137       77.12218       66.35838
H         33.81497       76.97480       63.92307
H         35.71898       77.91781       65.34391
H         34.70067       77.62812       66.80056
H         32.95746       79.21802       65.80861
H         34.06302       79.46772       64.41432
N         34.44889       74.40945       65.88693
C         35.25833       73.21371       65.96348
H         36.28646       73.46902       66.29714
H         34.81348       72.50271       66.69206
H         35.29961       72.72280       64.96798
H         33.61224       74.45721       66.47486
Ca        36.79443       83.99523       67.15407
O         33.84352       83.84237       68.33489
H         33.55842       84.78902       68.28311
H         33.27567       83.45284       69.04525

Ca 1.0



