%chk=holoCaM.loop3.water2.frame243.chk
%nprocshared=20
%mem=10GB
%nosave
#b3lyp/svp scf=(tight,noincore,xqc) Test 
#IOP(5/87=12) Density=Current Pop=(MK,readradii) iop(6/33=2) iop(6/42=6)

holoCaM.loop3.water2.frame243 

   0  1 
C         45.82575       73.45797       48.29787
C         44.94370       74.01396       47.22964
O         44.77122       73.37333       46.20315
H         46.66770       74.15777       48.47718
H         45.23834       73.33374       49.23161
H         46.23103       72.47085       47.99032
N         44.31930       75.20682       47.41662
C         43.43396       75.76967       46.41325
C         44.25186       76.23338       45.22385
O         45.01216       77.18165       45.37439
C         42.66044       76.94719       47.01694
C         41.52182       77.39166       46.17043
O         41.18007       76.75328       45.03448
O         40.80983       78.28113       46.59165
H         44.44475       75.69411       48.31833
H         42.69991       74.97747       46.13666
H         43.34000       77.80139       47.23075
H         42.20744       76.62052       47.97924
N         44.19489       75.58529       44.02622
C         45.10121       75.93044       42.93588
C         44.54944       77.03309       42.04197
O         45.32252       77.57121       41.26142
C         45.51014       74.69969       42.09866
C         45.98288       73.47829       42.91711
C         47.05635       73.74137       43.98741
C         48.36438       74.32486       43.44504
N         49.34368       74.45965       44.52519
H         43.62314       74.73599       43.96430
H         46.03946       76.31697       43.39015
H         46.32149       75.00975       41.40452
H         44.64775       74.36456       41.48092
H         46.34745       72.70504       42.20659
H         45.10774       73.04482       43.44157
H         47.27538       72.76911       44.48145
H         46.65420       74.42779       44.76098
H         48.17394       75.32494       42.99990
H         48.77623       73.65889       42.65632
H         49.57929       73.51683       44.91313
H         50.21517       74.89802       44.15051
H         48.96214       75.06424       45.28952
N         43.23795       77.42185       42.08642
C         42.70330       78.53765       41.30334
C         42.13452       79.63896       42.19871
O         41.64909       80.62716       41.66481
C         41.68016       78.05649       40.24744
C         40.40441       77.45397       40.76728
O         40.18738       77.28670       42.08241
O         39.54132       77.11709       39.97302
H         42.59013       76.91677       42.70608
H         43.51842       79.01300       40.71440
H         42.17316       77.31370       39.58299
H         41.40141       78.93200       39.61993
N         42.21766       79.57792       43.56206
C         41.81719       80.67099       44.43195
C         40.32257       80.91948       44.55258
O         39.98742       81.89153       45.21571
H         42.68888       78.78314       44.01275
H         42.31701       81.59873       44.07330
H         42.19777       80.47382       45.45749
N         39.35965       80.13713       43.97004
C         37.94018       80.49995       44.04748
C         37.32425       80.44645       45.45648
O         36.18276       80.86559       45.58495
C         37.04583       79.71149       43.04893
C         36.85214       78.19750       43.27038
N         35.57833       77.75359       42.70877
O         36.90501       77.82568       44.60200
H         39.64153       79.32976       43.40086
H         37.87663       81.55719       43.70508
H         37.41758       79.84707       42.01066
H         36.04827       80.19777       43.09358
H         34.80460       78.25169       43.21223
H         35.45374       76.74022       42.93433
N         37.98364       79.94213       46.54214
C         37.41145       79.88467       47.88568
C         37.32531       78.47920       48.46943
O         36.88017       78.37076       49.60489
H         38.93833       79.60343       46.42831
H         36.38552       80.31266       47.90288
H         38.04257       80.50302       48.55751
N         37.66645       77.35904       47.76597
C         37.46599       75.99720       48.26453
C         38.58722       75.04529       47.85737
O         39.47055       75.41396       47.09638
C         36.15388       75.43296       47.67706
C         34.92927       76.16783       48.15040
C         34.43633       77.27584       47.44299
C         34.25011       75.72426       49.29681
C         33.27943       77.92961       47.87791
C         33.09373       76.37712       49.72852
C         32.60263       77.48188       49.01842
O         31.48240       78.11554       49.41940
H         37.96378       77.47201       46.79659
H         37.40500       75.99589       49.37586
H         36.02648       74.36671       47.96053
H         36.19358       75.43968       46.56587
H         34.94386       77.62962       46.55459
H         34.61375       74.86864       49.85311
H         32.90527       78.78107       47.32403
H         32.57885       76.01977       50.61147
H         30.98065       77.82922       50.19614
N         38.56834       73.76146       48.31727
C         39.47062       72.70002       47.88269
C         38.61102       71.55859       47.35694
O         37.73429       71.10846       48.08596
C         40.34625       72.18723       49.06615
C         41.13180       73.34831       49.72360
C         41.31306       71.08610       48.56963
C         41.89778       72.91988       50.97925
H         37.84465       73.50492       49.00823
H         40.16233       73.06374       47.08843
H         39.67226       71.75090       49.83728
H         40.41343       74.13124       50.04600
H         41.83708       73.80167       48.99278
H         41.90684       70.65148       49.39642
H         40.75429       70.24011       48.12885
H         42.00811       71.49051       47.80113
H         41.19988       72.46912       51.71769
H         42.70146       72.19367       50.74527
H         42.37677       73.80714       51.44191
N         38.84752       70.98524       46.14474
C         38.12328       69.80514       45.68008
C         38.99810       68.58097       45.84606
O         40.14727       68.71879       46.22987
C         37.66536       69.98671       44.22134
O         38.76499       70.11096       43.35765
H         39.64696       71.31859       45.58973
H         37.21959       69.63514       46.30441
H         36.99098       70.87005       44.13542
H         37.07024       69.10937       43.89164
H         38.91012       71.08023       43.20585
N         38.51572       67.33346       45.60957
C         39.34430       66.13894       45.74308
C         40.49822       66.19316       44.76039
O         41.63553       65.98215       45.15634
C         38.51009       64.87976       45.50294
H         37.52889       67.23230       45.32377
H         39.73819       66.06677       46.78310
H         37.68441       64.83385       46.24558
H         38.07838       64.87384       44.48060
H         39.14459       63.97696       45.63684
N         40.26370       66.53409       43.46184
C         41.29841       66.64268       42.43900
C         42.43369       67.55204       42.87264
O         43.57749       67.12018       42.83165
C         40.68184       67.17121       41.13709
H         39.29157       66.75556       43.19494
H         41.71321       65.63076       42.23424
H         40.24333       68.18149       41.29132
H         41.45318       67.23350       40.34081
H         39.87609       66.48780       40.79368
N         42.19059       68.81631       43.31909
C         43.24791       69.73035       43.75226
C         44.06033       69.09178       44.86923
O         45.25977       68.91814       44.70114
C         42.65216       71.09891       44.17228
C         42.00729       71.81087       42.96141
C         41.37911       73.13351       43.30506
O         41.70785       74.14077       42.70070
O         40.39894       73.20981       44.22255
H         41.20889       69.12313       43.37036
H         43.93838       69.91978       42.89924
H         43.46092       71.74578       44.57016
H         41.90510       70.94743       44.98058
H         41.21214       71.17839       42.52515
H         42.78391       71.96842       42.18025
N         43.46505       68.65908       46.01130
C         44.18611       67.94769       47.04415
H         44.99071       68.58621       47.46271
H         43.48957       67.65921       47.86077
H         44.62737       67.01829       46.62193
H         42.46065       68.80443       46.13767
Ca        38.98218       76.94020       44.69214
O         38.49361       74.35807       41.59400
H         39.09522       74.75363       40.91623
H         37.64152       74.21178       41.11159
O         36.87430       74.39360       44.13408
H         36.30686       74.50792       43.33111
H         36.54348       73.55949       44.55183

Ca 1.0



