%chk=holoCaM.loop4.water3.frame195.chk
%nprocshared=20
%mem=10GB
%nosave
#b3lyp/svp scf=(tight,noincore,xqc) Test 
#IOP(5/87=12) Density=Current Pop=(MK,readradii) iop(6/33=2) iop(6/42=6)

holoCaM.loop4.water3.frame195 

   -3  1 
C         23.46760       58.88133       66.79187
C         24.95470       58.72373       66.69951
O         25.44519       57.62606       66.91868
H         23.21150       59.64178       67.55687
H         23.07263       59.20045       65.80407
H         22.98807       57.91624       67.06564
N         25.74027       59.78988       66.36976
C         27.18477       59.68575       66.18160
C         27.80239       61.06265       65.95301
O         27.39660       61.75750       65.03168
C         27.49228       58.76375       64.98079
C         28.96445       58.63406       64.74581
O         29.43832       58.94195       63.66439
O         29.76630       58.18248       65.72820
H         25.28259       60.70528       66.23684
H         27.63352       59.24060       67.09813
H         27.00001       59.16092       64.06588
H         27.10140       57.74354       65.16303
N         28.82289       61.49381       66.75154
C         29.49489       62.78146       66.61799
C         30.97436       62.63136       66.24188
O         31.59847       63.66079       66.02344
C         29.34934       63.62474       67.93463
C         30.05357       62.96298       69.15483
C         27.86278       63.89303       68.23491
C         30.13255       63.85407       70.39778
H         29.15076       60.86885       67.48653
H         29.02631       63.35904       65.79173
H         29.84105       64.60572       67.75139
H         31.09984       62.70527       68.88766
H         29.52517       62.03776       69.43798
H         27.32626       62.94436       68.45363
H         27.74133       64.57159       69.10317
H         27.37985       64.38496       67.36542
H         29.12791       64.10859       70.78982
H         30.67502       63.31219       71.20285
H         30.68959       64.78644       70.16769
N         31.62241       61.42156       66.19593
C         33.07297       61.31762       65.99073
C         33.52539       60.19682       65.04092
O         34.72368       60.09997       64.81288
C         33.77771       61.24133       67.36542
C         33.40572       60.07621       68.23926
O         32.60198       59.23634       67.87481
O         33.96413       59.97218       69.45930
H         31.10761       60.57158       66.45646
H         33.44885       62.25593       65.52769
H         33.52778       62.16637       67.92948
H         34.87811       61.22762       67.21365
N         32.65899       59.34199       64.42131
C         33.07604       58.33360       63.44326
C         33.90868       57.17329       63.98740
O         34.31989       56.34042       63.19248
H         31.65490       59.45416       64.58342
H         33.64730       58.84343       62.63727
H         32.16883       57.88844       62.97938
N         34.19724       57.04536       65.31130
C         35.03124       55.98341       65.89717
C         34.46757       54.55329       65.81991
O         35.14488       53.65381       66.30096
C         35.32339       56.33094       67.37753
C         34.07452       56.48157       68.20694
O         32.86265       56.33368       67.63324
O         34.16203       56.81159       69.37682
H         33.85056       57.78186       65.93669
H         36.00971       55.98122       65.36818
H         35.86474       57.30219       67.40345
H         35.98643       55.56258       67.83003
N         33.27839       54.24140       65.23184
C         32.78464       52.87340       65.11861
C         32.21107       52.26906       66.39463
O         31.73559       51.14753       66.30919
H         32.73280       54.97868       64.77123
H         33.58159       52.21917       64.70095
H         31.94441       52.87139       64.39025
N         32.15627       52.94393       67.58277
C         31.45050       52.42828       68.76145
C         30.31404       53.37284       69.12598
O         30.17380       54.40944       68.50591
C         32.39855       52.31208       69.97680
C         33.57756       51.36064       69.74989
C         34.34535       51.14818       71.03475
N         34.93237       52.18257       71.68265
O         34.42930       50.02181       71.50173
H         32.57111       53.87893       67.65121
H         31.01040       51.42880       68.55671
H         31.81801       51.91881       70.83989
H         32.78024       53.32034       70.25070
H         34.25323       51.77019       68.96927
H         33.18757       50.37878       69.40215
H         34.87637       53.14234       71.31387
H         35.44247       52.02279       72.56470
N         29.47862       53.07807       70.16359
C         28.49840       54.01829       70.69943
C         28.87335       54.31828       72.14206
O         29.14548       53.40582       72.90713
C         27.03313       53.53301       70.51832
C         26.75521       52.13747       71.08494
C         26.04958       54.55360       71.12696
H         29.58483       52.17219       70.64004
H         28.53681       54.97822       70.14096
H         26.83454       53.48910       69.42371
H         26.93634       52.10301       72.17809
H         25.69541       51.86340       70.89043
H         27.38896       51.38196       70.57720
H         24.99957       54.26385       70.91400
H         26.17199       54.61260       72.22978
H         26.22013       55.56443       70.69881
N         28.87812       55.60929       72.57291
C         29.26500       56.03832       73.90636
C         28.01681       56.40646       74.68573
O         26.93333       56.44231       74.12087
C         30.24752       57.22427       73.73768
C         30.76974       57.87175       74.99159
N         31.56090       57.18940       75.84786
O         30.51304       59.04664       75.21198
H         28.53446       56.33290       71.93690
H         29.75488       55.20100       74.44848
H         29.73873       58.00783       73.13236
H         31.12712       56.86484       73.16971
H         31.81033       56.20753       75.66555
H         31.94189       57.65512       76.68497
N         28.09058       56.59146       76.03118
C         26.91636       56.83959       76.86040
C         26.26167       58.19583       76.60949
O         25.16136       58.39467       77.10715
C         27.24261       56.74129       78.37294
C         28.02939       57.94594       78.86065
C         27.36464       58.94941       79.58765
C         29.39262       58.11756       78.56302
C         28.03919       60.10849       79.97596
C         30.06514       59.27567       78.95161
C         29.39139       60.27875       79.65033
O         30.05133       61.39957       80.00085
H         28.99944       56.43158       76.46904
H         26.18678       56.03384       76.61646
H         27.74749       55.78656       78.63341
H         26.25822       56.72570       78.89225
H         26.31347       58.84954       79.82902
H         29.95371       57.37017       78.03579
H         27.50517       60.87779       80.51770
H         31.11151       59.39391       78.69988
H         29.61648       62.12391       80.47195
N         26.88440       59.18941       75.90769
C         26.29021       60.50620       75.69496
C         25.81309       60.63813       74.25358
O         25.18157       61.63283       73.92882
C         27.29422       61.59494       76.14010
C         26.70344       63.01594       76.16178
C         27.71193       64.01133       76.66151
O         28.05804       64.94339       75.95289
O         28.22822       63.89051       77.89979
H         27.80884       59.01374       75.48804
H         25.38023       60.61227       76.32599
H         28.19091       61.56548       75.48290
H         27.61546       61.35152       77.17761
H         25.81908       63.04301       76.83497
H         26.38526       63.31988       75.14470
N         25.97651       59.61212       73.36600
C         25.34593       59.56558       72.05934
C         24.17466       58.58413       72.10008
O         23.45300       58.50174       71.11620
C         26.34850       59.05611       71.00099
C         27.73318       59.71630       71.05919
C         28.67469       59.02360       70.11490
O         29.40404       59.66106       69.38655
O         28.75835       57.68630       70.09695
H         26.48150       58.76691       73.64702
H         24.96549       60.57462       71.78737
H         25.90666       59.14351       69.98356
H         26.51302       57.97569       71.21404
H         28.15043       59.57067       72.07608
H         27.68261       60.80799       70.85409
N         23.95442       57.77280       73.18421
C         22.90600       56.78036       73.25615
H         22.25577       56.78419       72.35918
H         23.37032       55.77511       73.35601
H         22.28501       56.97228       74.15605
H         24.56642       57.80890       74.00959
Ca        30.90223       57.01458       68.48300
O         31.76304       57.75091       70.99824
H         32.55948       58.32598       70.89670
H         32.11133       56.82412       70.95407
O         30.47216       55.48658       65.77026
H         30.16516       54.54667       65.79540
H         30.41521       55.74141       64.81542
O         28.04821       56.20058       67.41706
H         27.39382       56.19902       68.15925
H         27.89914       55.33870       66.95362

Ca 1.0



