%chk=holoCaM.loop1.water2.frame317.chk
%nprocshared=20
%mem=10GB
%nosave
#b3lyp/svp scf=(tight,noincore,xqc) Test 
#IOP(5/87=12) Density=Current Pop=(MK,readradii) iop(6/33=2) iop(6/42=6)

holoCaM.loop1.water2.frame317 

   0  1 
C        102.39309       32.67739       56.02019
C        100.99104       32.39563       55.59309
O        100.77845       32.08503       54.42873
H        103.08957       32.55223       55.16323
H        102.46002       33.72047       56.39115
H        102.68176       31.97162       56.82585
N         99.97011       32.46840       56.49375
C         98.60021       32.18609       56.10620
C         98.13209       33.23594       55.10158
O         97.97664       34.39343       55.46596
C         97.68112       32.10513       57.34004
C         96.31590       31.72758       56.88428
O         96.16140       30.60822       56.15536
O         95.37669       32.47538       57.07825
H        100.18518       32.69826       57.47645
H         98.60065       31.17679       55.63519
H         97.66006       33.07807       57.88041
H         98.05305       31.32294       58.03621
N         97.98304       32.89767       53.78962
C         97.81566       33.87457       52.72458
C         96.34811       34.22254       52.52601
O         95.98531       35.37456       52.71669
C         98.48804       33.33368       51.43708
C         98.84238       34.43845       50.43535
C         99.61077       33.85761       49.23747
C        100.20281       34.97289       48.36608
N        100.93123       34.41782       47.22532
H         98.24291       31.94488       53.52438
H         98.39300       34.78119       53.01642
H         97.87929       32.52921       50.96981
H         99.46157       32.88097       51.73335
H         99.50603       35.16063       50.96105
H         97.93388       34.97446       50.08712
H         98.92904       33.21383       48.63949
H        100.45637       33.23286       49.60261
H        100.90630       35.57651       48.98392
H         99.39373       35.64127       47.99992
H        101.69393       33.78181       47.55489
H        100.27539       33.89027       46.60493
H        101.35971       35.20035       46.67993
N         95.44303       33.27066       52.13990
C         94.01636       33.55210       51.93201
C         93.27208       33.90948       53.22613
O         92.10597       34.26741       53.13334
C         93.32114       32.39005       51.16903
C         93.45474       31.08325       51.88492
O         92.97222       30.95394       53.12795
O         94.11591       30.18138       51.39476
H         95.79532       32.32061       51.95092
H         93.93937       34.43361       51.25816
H         93.80361       32.29710       50.17062
H         92.24588       32.61632       51.00353
N         93.87250       33.88674       54.45332
C         93.22522       34.37250       55.66292
C         92.06097       33.52231       56.11882
O         90.96583       34.04964       56.24988
H         94.85234       33.58648       54.54348
H         92.90381       35.42531       55.50413
H         93.96418       34.39067       56.48930
N         92.24136       32.20759       56.43479
C         91.20042       31.35373       57.00285
C         91.59536       30.82574       58.38928
O         90.86552       30.00847       58.93350
C         90.82357       30.23411       56.00477
C         91.87405       29.19695       55.72236
O         93.05849       29.21002       56.35101
O         91.63775       28.31047       54.91802
H         93.16974       31.79446       56.28925
H         90.26240       31.93415       57.14470
H         90.54209       30.71882       55.04400
H         89.92819       29.70042       56.39001
N         92.69430       31.30200       59.05349
C         93.04082       30.93374       60.41941
C         93.86470       29.66509       60.55509
O         94.24169       29.36277       61.67733
H         93.24215       32.06746       58.63825
H         92.12518       30.88869       61.05023
H         93.67395       31.74638       60.83802
N         94.19309       28.87742       59.48867
C         95.01592       27.66861       59.60222
C         96.18982       27.69775       58.63102
O         96.25733       28.57317       57.78737
C         94.15548       26.40769       59.34993
C         93.08822       26.21333       60.43385
O         93.56964       26.43422       58.07171
H         93.83553       29.13001       58.56490
H         95.44693       27.59502       60.62433
H         94.81044       25.51142       59.40046
H         92.81353       27.07734       58.08699
H         92.37768       27.06639       60.45224
H         92.52114       25.28021       60.23268
H         93.57241       26.12585       61.42959
N         97.17583       26.75607       58.72485
C         98.33089       26.68082       57.83260
C         98.41919       25.27329       57.24146
O         98.69252       24.33312       57.97371
C         99.61560       27.10469       58.62894
C         99.60619       28.65093       58.80924
C        100.92753       26.65356       57.96069
C        100.73934       29.20472       59.67622
H         97.12515       26.07117       59.49319
H         98.22190       27.38612       56.98330
H         99.58846       26.60312       59.62165
H         98.65290       28.96299       59.28335
H         99.66719       29.13719       57.80833
H        101.80465       26.90606       58.58821
H        100.96173       25.55177       57.85473
H        101.05014       27.12784       56.97492
H        100.63410       30.30820       59.75137
H        100.68853       28.77047       60.69594
H        101.73623       29.00528       59.23423
N         98.21496       25.06609       55.90282
C         98.45458       23.78351       55.23466
C         99.95352       23.51880       55.16526
O        100.72643       24.36325       55.58139
C         97.90000       23.77507       53.77439
C         96.37534       23.89658       53.68577
O         98.52933       24.74981       52.98107
H         97.90797       25.85922       55.33340
H         97.94345       22.97274       55.79854
H         98.12465       22.78980       53.31541
H         98.06262       25.61503       53.10687
H         96.06143       23.81350       52.62231
H         95.88829       23.08312       54.26263
H         96.03829       24.87622       54.06527
N        100.44348       22.38135       54.60052
C        101.87205       22.16784       54.36594
C        102.42223       23.20611       53.38460
O        103.49310       23.73751       53.64091
C        102.15908       20.73614       53.86467
C        101.77542       19.68687       54.91931
O        101.46990       20.49080       52.66613
H         99.77507       21.65880       54.29620
H        102.42457       22.26812       55.32907
H        103.26101       20.66025       53.69934
H        102.00474       19.82682       52.15777
H        102.33002       19.87292       55.86497
H        100.68796       19.70753       55.13948
H        102.03958       18.67151       54.55761
N        101.70257       23.59962       52.28714
C        102.12129       24.67146       51.37086
C        102.50952       25.92523       52.12493
O        103.62019       26.40989       51.95666
C        100.94768       25.07765       50.42069
C        100.85412       24.31359       49.09332
C        101.65852       24.98895       47.95679
C        103.17203       25.08196       48.18527
N        103.82516       25.75718       47.06370
H        100.77991       23.16271       52.14055
H        103.01495       24.34403       50.80411
H        100.97710       26.15954       50.15518
H        100.00078       24.96233       50.98537
H         99.79655       24.38444       48.75293
H        101.08930       23.23728       49.22883
H        101.26606       26.02246       47.81686
H        101.46698       24.43044       47.01580
H        103.58919       24.05821       48.30120
H        103.38133       25.67330       49.10026
H        103.47291       26.73975       46.98460
H        104.85607       25.78588       47.23555
H        103.64136       25.24458       46.17136
N        101.60706       26.52964       52.93322
C        101.83743       27.80251       53.60225
C        103.03427       27.68572       54.53659
O        103.93300       28.51041       54.44740
C        100.52405       28.27110       54.28334
C         99.42181       28.49279       53.21244
C         98.08001       28.86581       53.77289
O         97.47726       28.09162       54.68618
O         97.47428       29.81889       53.32189
H        100.70360       26.05518       53.05866
H        102.07892       28.58305       52.84524
H        100.70008       29.22342       54.82935
H        100.18152       27.49942       55.00092
H         99.25215       27.56511       52.63873
H         99.75401       29.26888       52.48780
N        103.16016       26.62391       55.37889
C        104.32133       26.37511       56.20982
H        105.08628       27.17399       56.12324
H        104.00855       26.29034       57.27047
H        104.78796       25.41362       55.90219
H        102.41983       25.91976       55.39650
Ca        94.60707       30.49689       54.56400
O         94.94494       27.43691       52.53604
H         93.98548       27.61232       52.36455
H         95.28929       27.07906       51.67948
O         94.95338       26.54993       55.60085
H         94.08991       26.93846       55.31511
H         94.73370       25.61327       55.83635

Ca 1.0



