%chk=holoCaM.loop3.water3.frame266.chk
%nprocshared=20
%mem=10GB
%nosave
#b3lyp/svp scf=(tight,noincore,xqc) Test 
#IOP(5/87=12) Density=Current Pop=(MK,readradii) iop(6/33=2) iop(6/42=6)

holoCaM.loop3.water3.frame266 

   0  1 
C         39.06156      -12.60938       75.38566
C         38.22041      -13.15052       74.26861
O         38.64839      -14.08227       73.60473
H         40.02185      -12.23052       74.98127
H         38.54626      -11.78056       75.91650
H         39.26131      -13.41984       76.11806
N         36.99211      -12.62201       74.01820
C         36.08362      -13.14725       73.00539
C         36.70380      -12.99872       71.61358
O         36.81319      -11.87903       71.13291
C         34.73879      -12.39307       73.15424
C         33.58678      -12.91852       72.37544
O         33.70012      -13.87022       71.62953
O         32.38835      -12.34093       72.54383
H         36.67467      -11.84115       74.61491
H         35.91441      -14.22295       73.24053
H         34.87878      -11.31845       72.90763
H         34.42146      -12.45369       74.21483
N         37.23399      -14.08047       70.95927
C         37.98940      -13.95245       69.70711
C         37.13751      -13.59673       68.49555
O         37.71677      -13.14281       67.51815
C         38.85740      -15.19936       69.37928
C         38.04581      -16.48940       69.19415
C         38.89257      -17.66573       68.69876
C         38.04164      -18.94606       68.65363
N         38.79460      -20.06846       68.09777
H         37.21064      -14.98735       71.44115
H         38.71124      -13.11826       69.85841
H         39.60033      -15.36128       70.19127
H         39.42219      -14.98991       68.44427
H         37.21633      -16.32780       68.47243
H         37.63866      -16.76601       70.17053
H         39.75686      -17.83038       69.37892
H         39.27248      -17.42982       67.68130
H         37.13720      -18.77590       68.02832
H         37.71140      -19.20048       69.68612
H         39.65337      -20.24807       68.66631
H         38.19154      -20.92303       68.11274
H         39.05930      -19.86166       67.10729
N         35.78983      -13.81209       68.45058
C         34.96923      -13.45316       67.28900
C         33.91799      -12.41394       67.63733
O         33.21234      -11.98352       66.73508
C         34.34614      -14.70858       66.62564
C         33.36011      -15.48137       67.46056
O         33.02037      -15.06784       68.68993
O         32.89162      -16.52205       67.02882
H         35.33528      -14.24931       69.26289
H         35.60646      -12.98674       66.50715
H         35.17711      -15.39469       66.35278
H         33.83041      -14.40883       65.68741
N         33.75693      -11.94563       68.90972
C         32.77593      -10.93993       69.25949
C         31.37819      -11.40925       68.95177
O         30.70014      -10.75401       68.17343
H         34.35311      -12.28980       69.67230
H         33.00140      -10.00293       68.70516
H         32.84682      -10.71668       70.34621
N         30.87576      -12.53078       69.54384
C         29.51389      -13.00988       69.31589
C         28.65144      -12.88252       70.56949
O         27.46981      -13.18992       70.49813
C         29.53728      -14.45792       68.77409
C         29.88397      -15.50647       69.81055
N         29.02507      -16.52109       70.06448
O         30.94099      -15.45147       70.41813
H         31.48083      -13.04696       70.19726
H         29.03349      -12.38428       68.53319
H         30.25627      -14.51701       67.92783
H         28.53095      -14.69222       68.36541
H         28.12787      -16.59851       69.56469
H         29.25607      -17.24048       70.76224
N         29.17649      -12.44590       71.75262
C         28.43124      -12.29834       72.98853
C         28.86842      -13.29709       74.04772
O         28.36850      -13.20630       75.15875
H         30.16787      -12.20334       71.80873
H         27.34164      -12.43909       72.82653
H         28.58844      -11.26167       73.35777
N         29.72754      -14.32176       73.76229
C         30.04000      -15.40634       74.68961
C         31.53574      -15.62829       74.81789
O         32.23945      -15.67685       73.81897
C         29.40815      -16.69859       74.15576
C         27.90680      -16.67036       74.27554
C         27.10318      -16.39454       73.16084
C         27.29764      -16.93807       75.51393
C         25.71127      -16.38838       73.27859
C         25.90454      -16.94645       75.62749
C         25.10618      -16.67149       74.50769
O         23.76128      -16.67942       74.59934
H         30.10418      -14.41243       72.80817
H         29.61542      -15.22664       75.70206
H         29.77334      -17.58867       74.71674
H         29.71879      -16.82604       73.09993
H         27.55222      -16.17298       72.20512
H         27.90131      -17.15949       76.38628
H         25.10320      -16.16823       72.41083
H         25.44782      -17.17050       76.58360
H         23.30331      -16.88506       75.42674
N         32.05070      -15.90895       76.04735
C         33.43615      -16.27462       76.31473
C         33.45320      -17.73220       76.76378
O         32.68219      -18.10674       77.63547
C         34.02537      -15.31714       77.38740
C         34.03971      -13.86985       76.83130
C         35.44881      -15.75536       77.79469
C         34.39329      -12.80733       77.87063
H         31.40652      -15.92190       76.85298
H         34.06534      -16.17899       75.40187
H         33.37154      -15.35945       78.28670
H         33.03149      -13.60340       76.44827
H         34.75857      -13.81370       75.98673
H         36.13345      -15.73273       76.91915
H         35.85956      -15.10315       78.58989
H         35.44104      -16.78353       78.21091
H         34.35228      -11.80490       77.39375
H         33.65647      -12.83250       78.70140
H         35.41454      -12.94674       78.27509
N         34.34645      -18.60100       76.21285
C         34.42953      -20.02236       76.52261
C         35.67903      -20.30603       77.32945
O         36.42635      -19.38930       77.62472
C         34.47534      -20.82117       75.20520
O         33.33996      -20.55935       74.42913
H         35.04115      -18.22932       75.56271
H         33.55260      -20.34587       77.12302
H         34.51776      -21.91325       75.39373
H         35.40608      -20.57233       74.63796
H         33.61324      -19.88379       73.75682
N         35.96358      -21.57342       77.73596
C         37.17344      -21.91371       78.47568
C         38.40869      -21.63751       77.63658
O         39.28876      -20.91700       78.08663
C         37.14199      -23.39009       78.88249
H         35.29303      -22.32335       77.50918
H         37.21171      -21.31786       79.41519
H         37.09410      -24.05183       77.99187
H         38.04911      -23.64056       79.47243
H         36.24931      -23.58241       79.51558
N         38.51989      -22.16912       76.38642
C         39.66612      -21.96176       75.50539
C         39.93766      -20.48872       75.27510
O         41.07542      -20.06490       75.42112
C         39.41566      -22.64443       74.15346
H         37.73341      -22.73927       76.03647
H         40.57008      -22.43102       75.95382
H         38.52081      -22.21518       73.65226
H         40.29484      -22.51175       73.48664
H         39.25199      -23.73319       74.30050
N         38.92480      -19.64930       74.92637
C         39.11010      -18.22645       74.64801
C         39.76805      -17.53173       75.82978
O         40.83133      -16.95256       75.65524
C         37.75780      -17.56003       74.29238
C         37.13598      -18.18514       73.02557
C         35.82953      -17.56581       72.61559
O         34.84052      -17.62293       73.32099
O         35.74593      -16.98386       71.41763
H         37.97888      -20.05259       74.87456
H         39.78101      -18.11651       73.76577
H         37.92453      -16.47911       74.10588
H         37.07212      -17.65208       75.15315
H         36.95061      -19.26798       73.15156
H         37.86359      -18.06159       72.19469
N         39.21033      -17.58795       77.06946
C         39.80689      -17.00409       78.25341
H         40.76109      -16.48088       78.03512
H         39.09803      -16.27911       78.70403
H         40.01224      -17.80885       78.99168
H         38.32866      -18.09344       77.19154
Ca        33.93376      -16.19337       70.39220
O         31.48568      -18.51070       72.24366
H         30.58018      -18.72871       71.91217
H         31.84873      -19.39063       72.50240
O         31.67585      -18.69178       69.35695
H         31.78146      -17.72039       69.20358
H         31.39417      -19.05316       68.48040
O         34.53861      -19.08809       69.77208
H         35.31982      -19.63984       70.02532
H         34.69526      -18.84667       68.82465

Ca 1.0



