%chk=holoCaM.loop4.water3.frame266.chk
%nprocshared=20
%mem=10GB
%nosave
#b3lyp/svp scf=(tight,noincore,xqc) Test 
#IOP(5/87=12) Density=Current Pop=(MK,readradii) iop(6/33=2) iop(6/42=6)

holoCaM.loop4.water3.frame266 

   -3  1 
C         30.63687      -16.76287       87.29475
C         29.52144      -17.29378       86.43914
O         29.45824      -16.94849       85.26872
H         31.29704      -16.08377       86.71189
H         30.23110      -16.21502       88.16834
H         31.25623      -17.61420       87.65375
N         28.63721      -18.19617       86.95462
C         27.64854      -18.91065       86.15192
C         26.23953      -18.85285       86.74456
O         26.08104      -19.04354       87.94211
C         28.10910      -20.36712       86.04419
C         27.16288      -21.17973       85.21782
O         26.58138      -22.26991       85.75016
O         26.90252      -20.84520       84.07335
H         28.75058      -18.47657       87.94133
H         27.63007      -18.52007       85.11355
H         28.19596      -20.81629       87.05655
H         29.10975      -20.38989       85.56000
N         25.16199      -18.66453       85.92057
C         23.76407      -18.62902       86.34121
C         22.86991      -19.61545       85.54131
O         21.69477      -19.71271       85.85936
C         23.26838      -17.14508       86.19481
C         21.98519      -16.80210       86.98780
C         23.06295      -16.73541       84.71970
C         22.16048      -16.93776       88.50144
H         25.34545      -18.52606       84.93250
H         23.73116      -18.91660       87.40817
H         24.06673      -16.48861       86.61111
H         21.12279      -17.40993       86.64755
H         21.73833      -15.73329       86.79764
H         23.97010      -16.89970       84.11584
H         22.23079      -17.30748       84.25861
H         22.81601      -15.65418       84.64973
H         23.01141      -16.31045       88.84586
H         21.23905      -16.58777       89.01093
H         22.33324      -17.98869       88.80312
N         23.33359      -20.30455       84.44580
C         22.47356      -21.04463       83.50475
C         23.06781      -22.37553       83.00237
O         22.38969      -23.05856       82.24597
C         22.14367      -20.12089       82.30356
C         23.35781      -19.62752       81.55108
O         24.59073      -20.04090       81.90533
O         23.22281      -18.81756       80.64957
H         24.30474      -20.16247       84.17259
H         21.50474      -21.28571       83.99534
H         21.60764      -19.23096       82.70049
H         21.45546      -20.63640       81.59798
N         24.30107      -22.81908       83.37902
C         24.87414      -24.10840       83.00245
C         25.29131      -24.29420       81.54684
O         25.77861      -25.37565       81.24748
H         24.83917      -22.26154       84.04403
H         24.15654      -24.91037       83.28028
H         25.79563      -24.26235       83.60499
N         25.14356      -23.33842       80.58401
C         25.49001      -23.57927       79.17474
C         26.99874      -23.66915       78.88839
O         27.35417      -23.90504       77.74147
C         24.80486      -22.52513       78.27572
C         25.27833      -21.11706       78.48028
O         26.30806      -20.84567       79.29821
O         24.72751      -20.20687       77.88448
H         24.69701      -22.44801       80.83985
H         25.03260      -24.54868       78.87627
H         23.71480      -22.55871       78.49117
H         24.94842      -22.78763       77.20486
N         27.93980      -23.50437       79.86244
C         29.37597      -23.59436       79.63171
C         29.89241      -22.48236       78.74676
O         30.53967      -22.77801       77.75329
H         27.63824      -23.33080       80.82768
H         29.63170      -24.59085       79.20508
H         29.90114      -23.50718       80.60638
N         29.65838      -21.17437       79.06874
C         30.14685      -20.02945       78.29626
C         29.71223      -18.71292       78.94458
O         28.52545      -18.47173       79.09359
C         29.69083      -20.07518       76.81548
C         28.17428      -20.24916       76.62753
C         27.76426      -20.33817       75.17961
N         26.46228      -20.51998       74.86455
O         28.59392      -20.25049       74.28581
H         29.10363      -20.98494       79.91474
H         31.25945      -20.06187       78.28577
H         30.19358      -20.92167       76.30595
H         30.03798      -19.14902       76.30577
H         27.62965      -19.39903       77.07693
H         27.85801      -21.18761       77.12712
H         25.75019      -20.60033       75.60256
H         26.16348      -20.58410       73.88114
N         30.64157      -17.80878       79.35854
C         30.30755      -16.50473       79.93875
C         29.68896      -15.60370       78.86235
O         30.31005      -15.43469       77.82295
C         31.59025      -15.86546       80.55771
C         31.32245      -14.46899       81.14092
C         32.14658      -16.75555       81.69087
H         31.63562      -18.05938       79.24730
H         29.59813      -16.64117       80.77916
H         32.36441      -15.76369       79.76572
H         30.94996      -13.77219       80.36300
H         30.58560      -14.52922       81.96399
H         32.26075      -14.04177       81.55484
H         31.39978      -16.85753       82.50827
H         32.40566      -17.77256       81.33391
H         33.06977      -16.31009       82.11759
N         28.49496      -14.95762       79.06557
C         27.88081      -14.04611       78.09291
C         27.94869      -12.60959       78.59849
O         28.59193      -12.36830       79.60690
C         26.43738      -14.47159       77.69573
C         25.32479      -14.12940       78.66881
N         25.20234      -14.74510       79.86089
O         24.49344      -13.29268       78.34715
H         28.03453      -15.05828       79.97271
H         28.46129      -14.07508       77.14618
H         26.41099      -15.54793       77.43008
H         26.19740      -13.92588       76.75784
H         25.85628      -15.47841       80.13421
H         24.42685      -14.50764       80.49794
N         27.35119      -11.59065       77.91221
C         27.49515      -10.18678       78.29908
C         26.81637       -9.82395       79.62697
O         26.99231       -8.68991       80.05950
C         26.94010       -9.28079       77.17240
C         27.45150       -7.86314       77.27072
C         28.82023       -7.60835       77.07389
C         26.58609       -6.79009       77.53505
C         29.31605       -6.30554       77.14185
C         27.08679       -5.48517       77.61265
C         28.45444       -5.23965       77.41371
O         28.95097       -3.98798       77.47825
H         26.84946      -11.81119       77.04150
H         28.58863      -10.00690       78.38774
H         25.82797       -9.32799       77.19280
H         27.26988       -9.65685       76.17949
H         29.50355       -8.41988       76.85520
H         25.52916       -6.96187       77.68750
H         30.37171       -6.12611       76.98031
H         26.41170       -4.66595       77.82445
H         28.39155       -3.22063       77.66332
N         26.03809      -10.69767       80.33563
C         25.40033      -10.36073       81.60866
C         26.04292      -11.10730       82.77365
O         25.63135      -10.90771       83.90296
C         23.88491      -10.65456       81.55147
C         23.16023       -9.93387       80.40356
C         23.29899       -8.44014       80.48581
O         22.84968       -7.77433       81.56656
O         23.81533       -7.82257       79.56876
H         25.89934      -11.65544       79.98147
H         25.53357       -9.28048       81.83902
H         23.41727      -10.35191       82.51505
H         23.72742      -11.74861       81.42614
H         22.07995      -10.19076       80.44688
H         23.55809      -10.29769       79.43126
N         27.10513      -11.93781       82.56392
C         27.85422      -12.61071       83.61183
C         29.28255      -12.08098       83.65811
O         30.05397      -12.56763       84.47807
C         27.91347      -14.10784       83.28575
C         26.54294      -14.76206       83.16233
C         26.73656      -16.18084       82.73808
O         26.31372      -17.16891       83.51264
O         27.31047      -16.45589       81.70364
H         27.44406      -12.08985       81.61572
H         27.38689      -12.45516       84.60779
H         28.50137      -14.64558       84.06263
H         28.42737      -14.21814       82.30803
H         25.92811      -14.24454       82.39952
H         26.00849      -14.71759       84.13634
N         29.72529      -11.10682       82.81134
C         31.09300      -10.64396       82.81775
H         31.77505      -11.48837       82.58121
H         31.22649       -9.85593       82.04602
H         31.34600      -10.22088       83.81182
H         29.09456      -10.67183       82.12212
Ca        26.57705      -19.15245       81.33768
O         28.81326      -21.60664       82.32986
H         28.57774      -22.44150       82.80624
H         29.80021      -21.56345       82.37268
O         29.44312      -18.81065       82.64216
H         29.03813      -17.95083       82.91190
H         29.95272      -19.10144       83.43904
O         25.83612      -17.71528       79.00326
H         26.00083      -17.89190       78.04489
H         24.85657      -17.60354       79.07307

Ca 1.0



