%chk=holoCaM.loop3.water1.frame161.chk
%nprocshared=20
%mem=10GB
%nosave
#b3lyp/svp scf=(tight,noincore,xqc) Test 
#IOP(5/87=12) Density=Current Pop=(MK,readradii) iop(6/33=2) iop(6/42=6)

holoCaM.loop3.water1.frame161 

   0  1 
C         97.30519      104.92633       86.24555
C         96.35830      104.18125       87.12983
O         95.88464      104.73809       88.11059
H         98.27413      104.38500       86.20625
H         96.87801      104.98840       85.22311
H         97.47962      105.95165       86.63270
N         96.06111      102.88589       86.84739
C         95.17571      102.07380       87.65960
C         96.02229      101.03615       88.36289
O         96.71852      100.28534       87.69048
C         94.10007      101.43933       86.76032
C         93.07949      100.68769       87.54850
O         93.11903      100.68652       88.88894
O         92.18799      100.09395       86.97285
H         96.51862      102.43934       86.03626
H         94.66209      102.70177       88.42207
H         94.57844      100.75093       86.03014
H         93.56302      102.23303       86.19831
N         96.04605      100.96592       89.72647
C         96.99090      100.11751       90.44215
C         96.42320       98.73032       90.71921
O         97.18595       97.86940       91.13237
C         97.50350      100.81263       91.72209
C         97.91286      102.29140       91.52555
C         99.00586      102.53456       90.47282
C         99.27887      104.04321       90.34045
N        100.31385      104.31566       89.34452
H         95.43179      101.59083       90.27052
H         97.87980       99.96703       89.78829
H         98.35982      100.23270       92.13164
H         96.69000      100.80609       92.47942
H         98.26125      102.68425       92.50521
H         97.01490      102.87860       91.23913
H         98.67437      102.15540       89.48272
H         99.93560      102.00362       90.77019
H         99.60079      104.45282       91.32359
H         98.34111      104.56223       90.03700
H        100.46054      105.34953       89.28152
H        101.21289      103.86353       89.62822
H        100.01568      103.96059       88.40706
N         95.11812       98.42367       90.43647
C         94.59417       97.06118       90.41836
C         94.36209       96.61067       88.97373
O         94.05923       95.44290       88.76622
C         93.31173       96.91525       91.27921
C         92.08443       97.59961       90.70469
O         92.03387       98.93897       90.55542
O         91.12692       96.92518       90.36684
H         94.49396       99.16638       90.11564
H         95.35846       96.37332       90.84299
H         93.50551       97.28102       92.31019
H         93.08925       95.82650       91.35103
N         94.52154       97.47298       87.92207
C         94.44051       97.10209       86.52274
C         93.08524       96.64367       86.02255
O         93.02616       96.32408       84.84302
H         94.79134       98.44869       88.08944
H         95.18662       96.30088       86.32901
H         94.73270       97.98420       85.91013
N         91.96824       96.53599       86.80696
C         90.74489       95.93010       86.27658
C         90.01928       96.78448       85.23569
O         89.11813       96.26084       84.59583
C         89.77839       95.46767       87.39162
C         89.11357       96.55051       88.20117
N         88.16921       96.21772       89.11026
O         89.41079       97.72117       88.04467
H         92.01631       96.77998       87.80473
H         91.06240       94.98949       85.77287
H         90.32059       94.79178       88.08829
H         88.97079       94.87961       86.90624
H         87.90352       95.23278       89.25338
H         87.68893       96.94272       89.66097
N         90.33012       98.09513       85.02216
C         89.69520       98.92459       84.00772
C         88.89838      100.08206       84.58177
O         88.46659      100.91058       83.79264
H         91.05935       98.53626       85.59079
H         89.01093       98.33879       83.35708
H         90.50187       99.32986       83.35886
N         88.61955      100.19503       85.91655
C         87.84344      101.29363       86.48946
C         88.61503      102.00932       87.64508
O         89.96843      101.65709       87.64659
C         86.51714      100.76888       87.06327
C         85.60212      100.15626       86.02736
C         85.60229       98.76833       85.81027
C         84.70046      100.96113       85.30759
C         84.71512       98.19495       84.89279
C         83.80754      100.38406       84.39662
C         83.81016       98.99695       84.18934
O         82.94551       98.42398       83.32676
H         88.94282       99.46645       86.55728
H         87.60116      102.03473       85.69444
H         85.96488      101.59428       87.56540
H         86.73787      100.01888       87.85363
H         86.28563       98.12939       86.35529
H         84.67379      102.03228       85.46528
H         84.72255       97.12343       84.73738
H         83.10769      101.01339       83.86004
H         82.28694       98.93771       82.83728
N         88.48537      103.46808       87.47808
C         89.02978      104.34137       88.54450
C         87.90313      105.09383       89.25472
O         87.08164      105.72549       88.60315
C         90.08123      105.31587       87.90824
C         91.39437      104.52269       87.64687
C         90.36290      106.55951       88.78254
C         92.52526      105.32164       87.00178
H         87.51344      103.74271       87.20193
H         89.56291      103.74751       89.32167
H         89.66901      105.70754       86.95184
H         91.17811      103.67191       86.97216
H         91.77735      104.11767       88.61195
H         91.05743      107.25670       88.27372
H         89.43600      107.14656       88.94865
H         90.79413      106.28458       89.75761
H         92.20306      105.72302       86.01996
H         92.86891      106.14711       87.65751
H         93.39495      104.65031       86.84606
N         87.88308      105.13418       90.61728
C         86.90806      105.86646       91.41646
C         87.54330      107.11644       92.01481
O         88.69864      107.39701       91.72630
C         86.37464      104.92400       92.51192
O         87.42396      104.53077       93.35940
H         88.64051      104.66002       91.12793
H         86.05372      106.20383       90.78932
H         85.92087      104.03633       92.01353
H         85.58771      105.41931       93.11748
H         87.17155      103.65217       93.74447
N         86.83653      107.92244       92.85858
C         87.37414      109.13394       93.47766
C         88.63577      108.84406       94.26347
O         89.61251      109.55794       94.09427
C         86.33522      109.76400       94.41091
H         85.86568      107.65557       93.08389
H         87.60677      109.88355       92.68746
H         86.74222      110.69719       94.85784
H         85.41880      110.02316       93.84000
H         86.06409      109.06438       95.23041
N         88.68916      107.79111       95.12598
C         89.89356      107.42875       95.86428
C         91.04929      107.14136       94.91994
O         92.09430      107.76229       95.06358
C         89.62331      106.20213       96.74488
H         87.84406      107.21063       95.23888
H         90.17330      108.26736       96.54084
H         89.32407      105.32666       96.12969
H         90.53317      105.93875       97.32568
H         88.80487      106.42614       97.46202
N         90.93328      106.21341       93.92589
C         92.03845      105.87232       93.02735
C         92.47403      107.03232       92.13140
O         93.49567      106.89481       91.47266
C         91.66119      104.69674       92.10496
C         91.31368      103.40113       92.84444
C         90.95779      102.33938       91.84934
O         91.77723      101.98783       91.01746
O         89.73228      101.78102       91.85941
H         90.03298      105.72018       93.83126
H         92.90611      105.56833       93.65407
H         92.51222      104.48678       91.41842
H         90.78978      104.99520       91.49752
H         90.44952      103.55423       93.52270
H         92.18371      103.06183       93.44476
N         91.74228      108.17584       92.01582
C         92.10290      109.28285       91.15403
H         93.05732      109.11055       90.61511
H         91.29874      109.43737       90.40355
H         92.20280      110.20434       91.76480
H         90.86824      108.27134       92.53533
Ca        90.48164      100.12969       89.32414
O         88.21904       99.12868       90.89784
H         87.51933       99.45899       90.27981
H         87.88965       99.36504       91.80023

Ca 1.0



