%chk=holoCaM.loop3.water2.frame110.chk
%nprocshared=20
%mem=10GB
%nosave
#b3lyp/svp scf=(tight,noincore,xqc) Test 
#IOP(5/87=12) Density=Current Pop=(MK,readradii) iop(6/33=2) iop(6/42=6)

holoCaM.loop3.water2.frame110 

   0  1 
C         -0.17064        5.44614      126.52946
C          0.08040        4.04156      126.07969
O          0.75209        3.29956      126.78121
H          0.23749        6.15111      125.77542
H         -1.26260        5.61266      126.63783
H          0.32348        5.63836      127.50558
N         -0.45780        3.59490      124.91314
C         -0.23570        2.24319      124.42247
C          1.20895        2.10834      123.97548
O          1.60419        2.82309      123.06376
C         -1.20956        1.94867      123.26385
C         -1.26366        0.50271      122.87069
O         -0.50746       -0.42727      123.48252
O         -2.05273        0.15903      122.01183
H         -1.06893        4.23359      124.37950
H         -0.47509        1.53604      125.24630
H         -0.96298        2.57607      122.37945
H         -2.23475        2.21870      123.58766
N          2.06309        1.23978      124.58992
C          3.47539        1.12703      124.22940
C          3.83131       -0.24710      123.68469
O          4.98655       -0.43380      123.32944
C          4.36169        1.52015      125.42799
C          4.14270        2.99643      125.79712
C          5.06886        3.45900      126.92412
C          4.82342        4.94193      127.24281
N          5.72498        5.41112      128.29341
H          1.70908        0.65451      125.36284
H          3.72790        1.82759      123.40261
H          5.42972        1.39677      125.14315
H          4.14933        0.86178      126.29890
H          3.09341        3.14694      126.10951
H          4.33668        3.62541      124.89992
H          6.12559        3.32343      126.60592
H          4.88484        2.84781      127.83441
H          3.76914        5.08316      127.57161
H          4.98702        5.55200      126.32602
H          6.71882        5.31194      127.98271
H          5.53066        6.42080      128.48411
H          5.57131        4.86369      129.17096
N          2.89084       -1.21908      123.48987
C          3.17219       -2.45742      122.76883
C          2.50707       -2.42620      121.38502
O          2.71536       -3.35363      120.61470
C          2.74561       -3.67402      123.62266
C          1.25591       -3.74797      123.74900
O          0.58185       -3.92433      122.74691
O          0.62761       -3.57516      124.92389
H          1.91731       -1.04884      123.77083
H          4.26438       -2.55104      122.58900
H          3.21448       -3.59009      124.62705
H          3.09597       -4.61864      123.15372
N          1.71341       -1.37972      120.99502
C          1.13023       -1.23890      119.67474
C          0.12991       -2.31305      119.32986
O          0.32533       -2.97549      118.32064
H          1.53640       -0.59360      121.63403
H          1.94668       -1.21519      118.92012
H          0.59678       -0.26416      119.62076
N         -0.99298       -2.50825      120.08560
C         -2.04361       -3.45509      119.70593
C         -3.38390       -2.76892      119.47203
O         -4.31933       -3.46191      119.09490
C         -2.14428       -4.60049      120.74637
C         -2.95264       -4.33212      122.04093
N         -4.37778       -4.57658      121.84947
O         -2.76957       -3.03957      122.53580
H         -1.10445       -1.95651      120.94677
H         -1.75998       -3.93917      118.74627
H         -1.11063       -4.91033      121.00431
H         -2.60643       -5.48817      120.26043
H         -4.51083       -5.58533      121.60916
H         -4.85707       -4.42607      122.76553
N         -3.56643       -1.42766      119.69018
C         -4.85268       -0.77102      119.54633
C         -5.35901       -0.23324      120.87010
O         -5.86204        0.88132      120.89448
H         -2.78275       -0.83814      119.98533
H         -5.61738       -1.48308      119.17463
H         -4.78610        0.04208      118.79006
N         -5.34742       -1.01745      121.99138
C         -6.07005       -0.69247      123.21938
C         -5.16582       -0.61210      124.44415
O         -3.99957       -0.97280      124.36287
C         -7.12288       -1.80112      123.47878
C         -8.11015       -1.98656      122.34437
C         -7.71160       -2.50151      121.09322
C         -9.46059       -1.66045      122.53980
C         -8.63418       -2.64982      120.05698
C        -10.38465       -1.81640      121.50330
C         -9.97219       -2.30480      120.25545
O        -10.85149       -2.45114      119.24488
H         -4.88483       -1.93322      121.94222
H         -6.58191        0.28865      123.11086
H         -7.67133       -1.54132      124.40902
H         -6.61622       -2.77566      123.66028
H         -6.69244       -2.79991      120.90417
H         -9.79893       -1.27839      123.49430
H         -8.30630       -3.03610      119.09923
H        -11.42031       -1.55413      121.67207
H        -11.78637       -2.22159      119.34141
N         -5.66707       -0.14013      125.63149
C         -4.92812       -0.14676      126.89493
C         -5.79955       -0.69235      128.02243
O         -6.81724       -0.09460      128.34243
C         -4.35024        1.25957      127.26444
C         -5.41822        2.38258      127.40512
C         -3.27906        1.64608      126.23667
C         -4.84493        3.71025      127.90891
H         -6.62722        0.23773      125.64127
H         -4.04860       -0.82152      126.80162
H         -3.83506        1.14607      128.24537
H         -6.17622        2.10386      128.15717
H         -5.93349        2.54757      126.43467
H         -3.74617        1.80699      125.24440
H         -2.73582        2.56343      126.53685
H         -2.52144        0.83840      126.15913
H         -5.67131        4.44023      128.04211
H         -4.34668        3.56254      128.89157
H         -4.12521        4.14999      127.19116
N         -5.45874       -1.83125      128.68656
C         -6.19923       -2.29053      129.85982
C         -5.88615       -1.41851      131.07260
O         -5.03144       -0.54611      130.99304
C         -5.84493       -3.75547      130.18021
O         -4.49043       -3.88705      130.52858
H         -4.65154       -2.37697      128.35355
H         -7.28870       -2.26112      129.63452
H         -6.10318       -4.40108      129.30864
H         -6.45882       -4.12969      131.02656
H         -4.01682       -4.25763      129.73957
N         -6.52240       -1.64437      132.25586
C         -6.15197       -0.98663      133.50474
C         -4.74309       -1.38428      133.91065
O         -4.00040       -0.53864      134.38786
C         -7.11732       -1.39014      134.62585
H         -7.27412       -2.35038      132.27917
H         -6.22987        0.11957      133.40045
H         -7.09490       -2.48744      134.79694
H         -6.84053       -0.87490      135.57200
H         -8.15267       -1.08745      134.36023
N         -4.32029       -2.67561      133.76581
C         -3.00733       -3.14613      134.19814
C         -1.83462       -2.47382      133.49699
O         -0.72967       -2.60132      134.00709
C         -2.88969       -4.65838      133.97268
H         -4.97965       -3.36089      133.36615
H         -2.92872       -2.93786      135.28869
H         -1.91518       -5.03893      134.34561
H         -3.70490       -5.19321      134.50294
H         -2.96588       -4.88304      132.88516
N         -1.97240       -1.77868      132.32880
C         -0.84898       -1.12083      131.65887
C         -1.02121        0.39058      131.60465
O         -0.11018        1.05904      131.13470
C         -0.61720       -1.70987      130.24775
C         -1.77991       -1.47207      129.26990
C         -1.45463       -2.01334      127.90732
O         -2.20981       -2.99006      127.37167
O         -0.51272       -1.56323      127.27374
H         -2.90224       -1.71873      131.89491
H          0.08811       -1.29859      132.23020
H         -0.43175       -2.80344      130.33798
H          0.30265       -1.24635      129.82626
H         -1.98907       -0.38598      129.17172
H         -2.68968       -1.97487      129.65053
N         -2.14048        1.01044      132.07351
C         -2.29092        2.44662      132.05650
H         -3.27498        2.72542      132.49084
H         -1.48958        2.91453      132.66684
H         -2.23954        2.82158      131.01317
H         -2.91714        0.46596      132.46127
Ca        -1.51192       -3.21135      124.40440
O         -1.77273       -5.90831      125.68740
H         -0.84421       -6.25075      125.71611
H         -2.17744       -6.35073      124.89936
O         -4.45116       -3.81814      125.49267
H         -5.29713       -3.50834      125.90298
H         -4.52835       -4.80491      125.47472

Ca 1.0



