%chk=holoCaM-CaMKII.loop2.water1.frame189.chk
%nprocshared=20
%mem=10GB
%nosave
#b3lyp/svp scf=(tight,noincore,xqc) Test 
#IOP(5/87=12) Density=Current Pop=(MK,readradii) iop(6/33=2) iop(6/42=6)

holoCaM-CaMKII.loop2.water1.frame189 

   -2  1 
C         16.03530       67.11349       10.70621
C         15.39973       68.37909       10.21117
O         14.28873       68.32810        9.70396
H         17.03954       67.30774       11.14058
H         15.39614       66.65917       11.49133
H         16.15001       66.40122        9.86349
N         16.05431       69.56493       10.33275
C         15.49717       70.83572        9.89003
C         15.27972       70.81341        8.38288
O         16.21306       70.50359        7.65531
C         16.45231       71.97413       10.29598
C         15.87692       73.34581       10.11581
O         16.61595       74.40209       10.46579
O         14.74307       73.52145        9.70926
H         16.98628       69.56293       10.77713
H         14.53800       71.00362       10.42926
H         17.40497       71.89050        9.72882
H         16.68125       71.88018       11.38002
N         14.06825       71.14185        7.85030
C         13.75687       71.06910        6.42657
C         13.59817       72.44408        5.78406
O         13.42652       72.49323        4.57399
C         12.48652       70.22916        6.24257
H         13.33248       71.46572        8.48578
H         14.58693       70.56814        5.88354
H         12.63055       69.21835        6.68122
H         11.62538       70.71241        6.75435
H         12.23865       70.11373        5.16656
N         13.67139       73.59836        6.50951
C         13.61938       74.94064        5.93193
C         14.89681       75.74005        6.24546
O         14.97866       76.88221        5.81586
C         12.32681       75.65299        6.40354
C         12.25311       75.74269        7.89634
O         13.08493       76.37364        8.50887
O         11.33875       75.03831        8.57680
H         13.76817       73.53889        7.52749
H         13.55244       74.88418        4.82322
H         11.46099       75.05447        6.04427
H         12.24836       76.66742        5.95648
N         15.95663       75.19781        6.92707
C         17.23280       75.88391        7.11462
C         17.24267       77.04087        8.10619
O         18.28881       77.66034        8.23724
H         15.91672       74.21818        7.24000
H         17.59139       76.23585        6.12307
H         17.97757       75.14893        7.49221
N         16.15755       77.38537        8.85600
C         16.14911       78.49700        9.81285
C         16.80460       78.16113       11.16248
O         16.70258       78.96774       12.07662
C         14.71510       79.05895        9.99978
C         13.71332       78.17249       10.69680
N         12.46779       78.64243       10.93693
O         14.00752       77.04105       11.04592
H         15.29708       76.85766        8.71791
H         16.69555       79.35507        9.36111
H         14.30603       79.33170        9.00154
H         14.79113       79.99482       10.59481
H         12.20202       79.59651       10.65192
H         11.76790       78.05825       11.41378
N         17.53261       77.02309       11.35135
C         18.21419       76.68076       12.59195
C         17.33108       76.15453       13.71527
O         17.89264       75.85082       14.75825
H         17.71950       76.41719       10.54914
H         18.80118       77.55827       12.94035
H         18.93736       75.86535       12.37334
N         15.97712       76.00266       13.60560
C         15.13144       75.50309       14.69793
C         14.33993       74.25978       14.27446
O         14.45945       73.82980       13.13503
C         14.22044       76.64699       15.20765
C         15.06390       77.80365       15.76690
O         13.40521       77.11551       14.16702
H         15.51674       76.27399       12.73083
H         15.75668       75.18221       15.56000
H         13.58678       76.25741       16.03585
H         12.72292       77.70700       14.58103
H         15.69783       78.25294       14.97333
H         14.40260       78.59666       16.17469
H         15.71866       77.44089       16.58829
N         13.53391       73.61023       15.17280
C         12.81166       72.36539       14.89460
C         11.30298       72.60342       15.00564
O         10.85082       73.10469       16.02602
C         13.25123       71.24218       15.89909
C         14.78584       71.01327       15.87587
C         12.51183       69.92177       15.58846
C         15.26822       70.00509       16.93029
H         13.44767       73.99554       16.12536
H         13.04627       71.99705       13.87115
H         12.97253       71.56564       16.92700
H         15.29708       71.97305       16.09889
H         15.10927       70.67056       14.86885
H         11.42260       70.06496       15.66653
H         12.76269       69.55886       14.56799
H         12.74844       69.12542       16.31982
H         14.88082       68.98385       16.73989
H         16.37571       69.93896       16.90665
H         14.95587       70.32872       17.94649
N         10.46094       72.16135       14.02381
C          8.99917       72.17864       14.11100
C          8.49901       70.78726       14.45850
O          9.30394       69.88028       14.55801
C          8.38110       72.59970       12.76048
C          8.73245       73.99783       12.36558
O          9.30503       74.21137       11.30993
O          8.36427       75.02954       13.14752
H         10.87389       71.65883       13.23344
H          8.66361       72.85941       14.92341
H          7.27427       72.55262       12.81788
H          8.71393       71.88838       11.96890
N          7.18002       70.53666       14.68936
C          6.69510       69.20710       15.05100
C          6.95086       68.18574       13.93547
O          7.58189       67.18494       14.24303
C          5.21725       69.25041       15.49560
C          4.71285       67.88852       15.91158
C          3.67867       67.27066       15.18833
C          5.26691       67.22305       17.02069
C          3.20934       66.00961       15.56553
C          4.79123       65.96298       17.39649
C          3.76384       65.35663       16.66915
H          6.51029       71.32003       14.64426
H          7.26054       68.87696       15.95248
H          4.57899       69.65704       14.69744
H          5.11227       69.94649       16.35596
H          3.23969       67.76146       14.32860
H          6.06171       67.67867       17.59769
H          2.41501       65.53906       15.00115
H          5.21869       65.45651       18.25235
H          3.39695       64.38116       16.96060
N          6.54015       68.34409       12.63137
C          6.84694       67.39845       11.55647
C          8.30235       66.96857       11.53228
O          8.59171       65.78571       11.42421
C          6.53905       68.20195       10.28040
C          5.37699       69.04887       10.72385
C          5.83553       69.49978       12.10567
H          6.17002       66.51906       11.63824
H          7.36568       68.91654       10.05880
H          6.36572       67.58367        9.37412
H          5.09674       69.87841       10.03994
H          4.50093       68.37097       10.84447
H          6.54462       70.35196       12.04940
H          4.92922       69.78383       12.66050
N          9.26786       67.91602       11.64409
C         10.70656       67.67107       11.59286
C         11.11537       66.72244       12.70620
O         11.69401       65.68631       12.41097
C         11.43931       69.04081       11.63123
C         11.06849       69.81568       10.34125
C         11.41865       71.26565       10.24590
O         11.04712       71.86185        9.24684
O         12.04634       71.96726       11.20660
H          8.94133       68.88374       11.78878
H         10.97063       67.19027       10.62335
H         12.54203       68.91673       11.68015
H         11.11229       69.58335       12.53832
H          9.97209       69.81684       10.19435
H         11.51530       69.28656        9.47260
N         10.78620       66.97985       14.00039
C         11.05390       66.07846       15.10171
H         11.66089       66.60145       15.86869
H         10.08836       65.77230       15.56000
H         11.59068       65.16220       14.78028
H         10.28000       67.83869       14.21953
Ca        12.04689       74.11105       10.51056
O         11.24799       75.88440       12.78806
H         10.51274       76.54362       12.86002
H         11.31445       75.48559       13.69131

Ca 1.0



