%chk=holoCaM.loop4.water3.frame238.chk
%nprocshared=20
%mem=10GB
%nosave
#b3lyp/svp scf=(tight,noincore,xqc) Test 
#IOP(5/87=12) Density=Current Pop=(MK,readradii) iop(6/33=2) iop(6/42=6)

holoCaM.loop4.water3.frame238 

   -3  1 
C         35.92581       70.11391       43.90615
C         34.97240       70.86482       44.77643
O         35.04453       72.08287       44.76658
H         36.96198       70.29180       44.26006
H         35.70493       69.02916       43.91179
H         35.83508       70.49128       42.86281
N         34.01278       70.22346       45.51407
C         32.97419       70.96593       46.21022
C         32.59227       70.40396       47.57585
O         32.36505       69.20864       47.68650
C         31.75002       71.03677       45.28362
C         30.85831       72.12224       45.74002
O         29.64710       72.03100       45.65397
O         31.47363       73.25408       46.11919
H         33.91847       69.20194       45.42916
H         33.35281       71.99915       46.36982
H         31.22617       70.06604       45.15426
H         32.10592       71.38100       44.28959
N         32.42811       71.24615       48.64558
C         32.05291       70.82104       49.99775
C         30.69172       71.40258       50.43962
O         30.17827       70.92316       51.44154
C         33.21668       71.22686       50.97482
C         34.52382       70.49292       50.56391
C         32.89949       70.96437       52.46413
C         35.78446       71.02563       51.25240
H         32.58996       72.24839       48.49728
H         31.93162       69.71566       50.01931
H         33.37681       72.32271       50.86362
H         34.70241       70.62544       49.47788
H         34.41881       69.40327       50.76057
H         33.73759       71.27362       53.11902
H         32.04113       71.57723       52.80468
H         32.68331       69.88991       52.64078
H         35.91812       72.10415       51.02082
H         35.75784       70.88619       52.35033
H         36.66894       70.47522       50.86724
N         30.05983       72.43627       49.79564
C         28.84062       73.07085       50.32959
C         27.78433       73.44962       49.27936
O         26.72445       73.91154       49.68081
C         29.22363       74.29218       51.20228
C         30.00498       75.36665       50.50395
O         30.31383       75.25677       49.33564
O         30.39056       76.46051       51.18518
H         30.53661       72.87823       49.00213
H         28.32702       72.36329       51.01822
H         29.84350       73.93675       52.05216
H         28.30149       74.75108       51.61968
N         27.96538       73.26616       47.94090
C         26.93293       73.55182       46.94495
C         26.63122       75.02988       46.72936
O         25.65040       75.32170       46.05942
H         28.83847       72.84786       47.62330
H         26.00774       73.00998       47.24060
H         27.24014       73.15096       45.95570
N         27.42057       76.01566       47.24362
C         27.13602       77.44641       47.08023
C         27.24332       77.96437       45.64176
O         26.63810       78.98792       45.35505
C         28.00466       78.31398       48.02766
C         29.48439       78.26984       47.77505
O         30.04546       77.12753       47.39654
O         30.20628       79.12546       48.25042
H         28.22032       75.72849       47.81673
H         26.08651       77.59883       47.41489
H         27.84723       77.96156       49.06885
H         27.67453       79.37264       47.97340
N         28.06002       77.37910       44.71979
C         28.24819       77.87669       43.35797
C         29.64259       78.43569       43.12375
O         29.91807       78.85099       42.00685
H         28.60901       76.56520       45.00823
H         27.53336       78.69428       43.12196
H         28.05445       77.04672       42.64443
N         30.55482       78.52740       44.13396
C         31.87384       79.14379       44.00682
C         32.93709       78.13002       44.38631
O         32.59055       77.16375       45.04999
C         31.92506       80.34072       44.98276
C         30.83706       81.38841       44.66490
C         30.74315       82.44712       45.73406
N         30.31471       82.12719       46.97660
O         31.02064       83.60624       45.47050
H         30.29868       78.18732       45.06837
H         32.05552       79.48490       42.96378
H         32.92394       80.82844       44.95643
H         31.76416       79.94460       46.01040
H         29.83322       80.91609       44.59692
H         31.07109       81.84848       43.68142
H         30.03225       81.16683       47.19032
H         30.23139       82.83892       47.71665
N         34.25464       78.28756       44.04274
C         35.27604       77.33055       44.46971
C         36.18456       78.00224       45.49463
O         36.92262       78.92247       45.17440
C         35.96933       76.60740       43.27607
C         36.77398       77.51928       42.34407
C         36.85797       75.46364       43.78265
H         34.53940       79.11531       43.49731
H         34.77241       76.49934       44.99794
H         35.16598       76.13689       42.66607
H         36.11753       78.28626       41.88702
H         37.60955       78.01087       42.88144
H         37.20779       76.91228       41.51789
H         36.25673       74.77137       44.40504
H         37.26632       74.87231       42.93572
H         37.69926       75.86271       44.38213
N         36.07534       77.61465       46.79712
C         36.74511       78.21890       47.94663
C         38.24588       78.00442       47.90738
O         38.74300       77.36314       47.00446
C         36.10479       77.58143       49.21838
C         36.55179       78.08423       50.56330
N         36.48534       79.39770       50.87272
O         36.95200       77.28794       51.39856
H         35.39868       76.87004       46.99889
H         36.53550       79.30913       47.94512
H         36.25315       76.48021       49.18387
H         35.01776       77.77965       49.16804
H         36.14825       80.08431       50.18394
H         36.79381       79.72810       51.79861
N         39.03972       78.53549       48.86955
C         40.46176       78.25190       49.00507
C         40.66691       76.76502       49.34358
O         41.52126       76.13769       48.73433
C         41.03387       79.22286       50.06367
C         42.52742       79.16354       50.25313
C         43.40975       79.41037       49.18446
C         43.05145       78.90683       51.52852
C         44.79313       79.38868       49.39383
C         44.43142       78.89040       51.73592
C         45.30812       79.13016       50.66893
O         46.64244       79.12073       50.85997
H         38.60924       79.16829       49.55478
H         40.97817       78.48908       48.04883
H         40.50834       79.06260       51.02998
H         40.80203       80.26105       49.72994
H         43.03323       79.62862       48.19280
H         42.39029       78.73197       52.36776
H         45.46545       79.58062       48.56639
H         44.81582       78.69708       52.72882
H         47.03413       78.95340       51.72929
N         39.88442       76.12820       50.27303
C         39.99586       74.69702       50.60546
C         39.51646       73.75066       49.50170
O         39.67204       72.54663       49.66016
C         39.14921       74.33235       51.84558
C         39.56625       75.07487       53.11525
C         38.83855       74.50362       54.29928
O         37.99024       75.26836       55.01052
O         39.01568       73.33867       54.62251
H         39.18785       76.69379       50.76956
H         41.06166       74.47864       50.83422
H         39.27787       73.24264       52.03594
H         38.06840       74.51889       51.64350
H         39.33368       76.15528       53.00984
H         40.65757       74.95845       53.28573
N         38.89315       74.20326       48.38657
C         38.34419       73.34071       47.34708
C         39.28236       73.38915       46.15579
O         39.73292       72.34693       45.70140
C         36.91691       73.81791       47.00625
C         35.93771       73.65289       48.18852
C         34.58252       74.26478       47.94320
O         33.69019       74.31836       48.94863
O         34.28774       74.74469       46.86287
H         38.78477       75.21486       48.26086
H         38.27939       72.27671       47.67251
H         36.53937       73.24080       46.14896
H         36.96255       74.88967       46.71850
H         36.36040       74.15459       49.08023
H         35.80269       72.57508       48.42169
N         39.68814       74.58338       45.65683
C         40.67913       74.73269       44.62015
H         41.63034       74.25717       44.94083
H         40.31827       74.28427       43.67430
H         40.87556       75.81611       44.45753
H         39.31513       75.43349       46.06658
Ca        31.04502       75.28748       46.78618
O         29.99353       74.71244       44.38017
H         29.11902       74.37898       44.70324
H         29.88544       74.84932       43.41025
O         32.80292       74.56078       44.28399
H         33.63858       74.10181       44.53680
H         33.03760       75.09595       43.48914
O         32.67859       77.15638       48.58779
H         32.56811       78.13929       48.57111
H         32.43079       76.89715       49.50967

Ca 1.0



