%chk=holoCaM.loop3.water3.frame381.chk
%nprocshared=20
%mem=10GB
%nosave
#b3lyp/svp scf=(tight,noincore,xqc) Test 
#IOP(5/87=12) Density=Current Pop=(MK,readradii) iop(6/33=2) iop(6/42=6)

holoCaM.loop3.water3.frame381 

   0  1 
C         70.88347       76.42244       84.23479
C         70.45982       75.07433       84.73829
O         69.60427       74.44115       84.13722
H         71.97027       76.40726       84.00521
H         70.32353       76.70400       83.31921
H         70.69444       77.18438       85.02119
N         71.03992       74.57730       85.86228
C         70.71212       73.28256       86.45498
C         69.23540       73.28398       86.86837
O         68.86112       74.03008       87.76172
C         71.68513       73.08035       87.64153
C         71.68111       71.83542       88.47737
O         72.39926       71.83814       89.45843
O         70.96465       70.72783       88.21518
H         71.76636       75.16145       86.30786
H         70.90555       72.50539       85.68689
H         71.50067       73.92120       88.34528
H         72.72451       73.18193       87.25530
N         68.32622       72.54683       86.16532
C         66.87846       72.60996       86.35530
C         66.42399       72.05513       87.69547
O         65.40716       72.52841       88.18365
C         66.10997       71.88422       85.21691
C         66.35887       72.51034       83.82596
C         65.59868       71.80881       82.68294
C         64.07158       71.96545       82.75553
N         63.43060       71.32334       81.60610
H         68.67538       71.99224       85.38696
H         66.57250       73.67908       86.30507
H         65.02450       71.95097       85.43960
H         66.39813       70.81218       85.19672
H         67.43925       72.43917       83.58377
H         66.08253       73.58706       83.83778
H         65.85418       70.72898       82.67108
H         65.94128       72.26068       81.72529
H         63.81174       73.04727       82.75935
H         63.67970       71.50360       83.68568
H         63.76429       71.75770       80.71470
H         63.64575       70.29960       81.59881
H         62.39483       71.44957       81.67393
N         67.08382       71.04166       88.33321
C         66.63625       70.49419       89.61923
C         67.62606       70.75596       90.74631
O         67.33910       70.36312       91.86925
C         66.32871       68.98109       89.50782
C         67.51616       68.09579       89.23947
O         68.62879       68.56187       89.06909
O         67.34885       66.76062       89.21998
H         67.93080       70.65201       87.89407
H         65.68714       70.98109       89.92962
H         65.57072       68.81232       88.71399
H         65.88925       68.64656       90.47303
N         68.80062       71.41460       90.54202
C         69.75524       71.66150       91.60588
C         70.32204       70.37321       92.16210
O         70.22457       70.14939       93.35959
H         69.03431       71.77601       89.60788
H         69.27428       72.26334       92.40712
H         70.59642       72.26241       91.20266
N         70.96376       69.49651       91.33917
C         71.64128       68.28367       91.78477
C         73.14178       68.38108       91.50671
O         73.84271       67.39301       91.66457
C         71.00722       67.04214       91.11168
C         71.37095       66.84100       89.65364
N         71.95473       65.68700       89.25026
O         71.13317       67.70907       88.83011
H         71.01214       69.72032       90.34146
H         71.50276       68.14764       92.87930
H         69.90261       67.10169       91.22255
H         71.34067       66.14367       91.67458
H         72.15790       64.93086       89.92031
H         72.19313       65.53887       88.25900
N         73.70408       69.56688       91.12904
C         75.10712       69.76330       90.82445
C         75.51249       69.35734       89.41993
O         76.67439       69.58503       89.10733
H         73.13303       70.41638       91.15000
H         75.74012       69.27365       91.59473
H         75.31181       70.85603       90.87797
N         74.66269       68.78052       88.51063
C         75.09356       68.43842       87.15178
C         74.21113       69.07443       86.08945
O         73.09270       69.47676       86.37731
C         75.12150       66.91075       86.91971
C         76.07504       66.18928       87.84291
C         75.79391       66.07377       89.21283
C         77.25236       65.61075       87.33860
C         76.67711       65.41258       90.06838
C         78.13801       64.94923       88.19514
C         77.85370       64.85104       89.56504
O         78.69892       64.21890       90.40355
H         73.69383       68.56111       88.78416
H         76.12564       68.81471       86.97701
H         75.44247       66.73985       85.86811
H         74.10678       66.47410       87.02930
H         74.88554       66.48803       89.61686
H         77.49165       65.67847       86.28465
H         76.44422       65.33633       91.12311
H         79.04449       64.51522       87.79300
H         79.52445       63.81840       90.09613
N         74.68520       69.19482       84.81719
C         73.93506       69.70764       83.67411
C         74.03338       68.67960       82.55252
O         75.13887       68.32614       82.16026
C         74.49533       71.10379       83.25136
C         74.16202       72.13780       84.36456
C         73.90960       71.56587       81.89944
C         74.71655       73.54256       84.12160
H         75.66431       68.91375       84.64303
H         72.86040       69.85568       83.92968
H         75.59801       71.02395       83.12614
H         74.57993       71.78693       85.33094
H         73.05754       72.21637       84.47590
H         74.35424       72.52710       81.57376
H         74.15166       70.84244       81.09514
H         72.81029       71.68496       81.96654
H         74.28268       74.00565       83.21261
H         74.44437       74.19382       84.97958
H         75.82216       73.50907       84.03368
N         72.90815       68.19443       81.95802
C         72.91808       67.25248       80.83999
C         72.78867       67.99935       79.52409
O         72.73524       69.21623       79.54096
C         71.76023       66.25053       81.01177
O         70.53020       66.92429       80.94565
H         72.00118       68.58278       82.25373
H         73.87444       66.68475       80.81809
H         71.87843       65.73667       81.99371
H         71.78423       65.48026       80.21255
H         69.88853       66.41996       81.50906
N         72.73743       67.33844       78.33460
C         72.51406       68.01223       77.05560
C         71.14201       68.66479       77.02223
O         71.04658       69.83056       76.66413
C         72.61764       67.01807       75.89898
H         72.84028       66.31182       78.33981
H         73.30515       68.77915       76.88886
H         72.46906       67.55099       74.93427
H         73.62898       66.55964       75.88945
H         71.85446       66.21730       75.99090
N         70.03554       67.96802       77.42588
C         68.67258       68.51169       77.44232
C         68.49334       69.73354       78.34149
O         67.39652       70.27527       78.37613
C         67.69595       67.42171       77.90927
H         70.17436       66.99318       77.73419
H         68.40399       68.80633       76.40517
H         66.64829       67.79064       77.88386
H         67.76731       66.53483       77.24553
H         67.93730       67.10969       78.94997
N         69.51526       70.22973       79.08567
C         69.42302       71.37767       79.96316
C         70.27088       72.49753       79.38939
O         69.74014       73.56982       79.13591
C         69.88803       70.93769       81.35385
C         68.97163       69.82818       81.90096
C         69.45117       69.39861       83.23644
O         69.59437       70.34514       84.15630
O         69.72684       68.23738       83.48950
H         70.42404       69.76648       79.06885
H         68.37707       71.75148       80.04523
H         69.88151       71.81406       82.04069
H         70.92639       70.54836       81.29489
H         68.92766       68.95205       81.22388
H         67.95223       70.24015       82.01296
N         71.58662       72.30413       79.10163
C         72.40315       73.30465       78.45497
H         73.42385       72.89889       78.28209
H         71.96286       73.56542       77.46839
H         72.47580       74.21035       79.08990
H         72.02386       71.40457       79.31166
Ca        70.33390       70.09539       86.20449
O         67.30022       68.25715       85.58302
H         67.63909       67.45375       85.11479
H         66.38935       68.38458       85.21749
O         71.73772       66.27271       85.32502
H         71.14817       65.48560       85.21065
H         72.64769       65.92201       85.15697
O         69.21818       66.02527       87.03667
H         69.52312       65.12306       87.30610
H         68.23954       65.93022       86.92659

Ca 1.0



