%chk=holoCaM-CaMKII.loop1.water2.frame325.chk
%nprocshared=20
%mem=10GB
%nosave
#b3lyp/svp scf=(tight,noincore,xqc) Test 
#IOP(5/87=12) Density=Current Pop=(MK,readradii) iop(6/33=2) iop(6/42=6)

holoCaM-CaMKII.loop1.water2.frame325 

   0  1 
C         36.36809       50.42942       73.18679
C         35.85448       49.12295       72.67127
O         34.65276       48.98213       72.49677
H         37.06484       50.86741       72.44065
H         35.53086       51.14079       73.35185
H         36.90458       50.26746       74.14352
N         36.72651       48.12296       72.36559
C         36.28946       46.86662       71.77793
C         35.47092       46.06327       72.78257
O         36.02819       45.50728       73.71890
C         37.51432       46.08192       71.26684
C         37.18819       44.87118       70.44986
O         36.03623       44.54057       70.22274
O         38.20010       44.16342       69.92494
H         37.73586       48.29907       72.49135
H         35.67120       47.12438       70.88700
H         38.15609       45.78235       72.12392
H         38.10792       46.75146       70.60745
N         34.11722       46.02059       72.66605
C         33.23676       45.28951       73.57233
C         33.35553       43.79367       73.32215
O         33.65696       43.04658       74.24175
C         31.76639       45.75758       73.35668
C         31.52731       47.22005       73.79884
C         31.48336       47.35471       75.33495
C         31.28391       48.79775       75.82592
N         32.46434       49.62963       75.58146
H         33.69108       46.57950       71.91459
H         33.51144       45.49877       74.62596
H         31.05175       45.10590       73.90514
H         31.52029       45.67337       72.27601
H         30.53756       47.55157       73.41351
H         32.29725       47.87470       73.34451
H         32.40160       46.95985       75.81119
H         30.62352       46.74755       75.69521
H         31.10805       48.76013       76.92438
H         30.38494       49.25173       75.35331
H         32.30898       50.57270       76.00520
H         33.30446       49.19901       76.03318
H         32.63439       49.74971       74.55872
N         33.07144       43.29487       72.08939
C         33.00011       41.86644       71.76223
C         34.34658       41.14961       71.65291
O         34.32636       39.94064       71.46390
C         32.12567       41.65624       70.49864
C         32.46126       42.60308       69.37574
O         33.67850       42.64588       68.80488
O         31.62874       43.43217       69.04032
H         32.79322       43.98569       71.38035
H         32.45381       41.34907       72.58247
H         31.07692       41.88112       70.80175
H         32.14500       40.59796       70.16421
N         35.54402       41.78087       71.79915
C         36.81649       41.06858       71.80630
C         37.12513       40.36296       70.50250
O         37.35646       39.16226       70.51222
H         35.56697       42.79461       71.96878
H         36.82239       40.33443       72.64214
H         37.63407       41.79800       71.99404
N         37.18948       41.07180       69.34528
C         37.60617       40.52134       68.05743
C         38.85874       41.23402       67.53672
O         39.21414       41.04107       66.38219
C         36.42935       40.55482       67.05171
C         35.84756       41.90329       66.72061
O         34.92063       41.97189       65.93019
O         36.30909       43.03137       67.28378
H         36.95830       42.07111       69.39216
H         37.87456       39.44559       68.14825
H         35.60894       39.92855       67.46489
H         36.76485       40.08469       66.10145
N         39.61363       42.02766       68.35549
C         40.81967       42.73022       67.93839
C         40.57203       43.92680       67.03663
O         41.54670       44.59131       66.70507
H         39.37394       42.09534       69.35272
H         41.52370       42.01590       67.45929
H         41.31598       43.13028       68.84964
N         39.32920       44.27645       66.59657
C         39.05694       45.42668       65.73946
C         37.99040       46.33302       66.35034
O         37.40328       45.97911       67.36875
C         38.63948       44.94277       64.32758
C         39.78066       44.19960       63.61565
O         37.48682       44.13852       64.38221
H         38.53115       43.69251       66.85914
H         39.97612       46.04515       65.62807
H         38.40548       45.82751       63.69833
H         37.74288       43.24264       64.72497
H         39.45182       43.89442       62.59986
H         40.66575       44.86305       63.51662
H         40.07783       43.28875       64.17793
N         37.72987       47.55491       65.80177
C         36.77848       48.52377       66.34999
C         35.83230       48.99719       65.24656
O         36.31272       49.33104       64.16835
C         37.54323       49.73764       66.96924
C         38.61314       49.25231       67.98686
C         36.54315       50.69604       67.65269
C         39.42369       50.38158       68.62949
H         38.29345       47.84922       64.98619
H         36.19112       48.07050       67.18139
H         38.06783       50.28756       66.15585
H         39.34236       48.60308       67.45687
H         38.13435       48.65390       68.79227
H         35.78853       51.05893       66.93275
H         36.02157       50.18291       68.49014
H         37.04528       51.60200       68.04425
H         39.90837       51.00527       67.84878
H         38.78780       51.02099       69.27461
H         40.21283       49.94562       69.27751
N         34.49344       49.15083       65.47076
C         33.55747       49.67793       64.47136
C         33.16648       51.11152       64.80507
O         33.61870       51.63098       65.81209
C         32.28537       48.79399       64.38855
C         32.60488       47.33422       64.09088
O         31.57941       48.86820       65.59952
H         34.13272       48.95576       66.41660
H         34.04101       49.70302       63.46935
H         31.65002       49.18266       63.56010
H         30.62526       48.68274       65.39697
H         33.18008       47.24277       63.14624
H         33.18030       46.90546       64.93357
H         31.65970       46.75953       63.99310
N         32.33556       51.82497       63.99576
C         31.88813       53.18687       64.29753
C         31.06098       53.21311       65.57615
O         31.35970       53.99852       66.46293
C         31.06739       53.79175       63.12972
C         31.92434       53.97224       61.87126
O         29.95446       52.98640       62.83535
H         32.00307       51.37646       63.12806
H         32.77403       53.84892       64.43609
H         30.72739       54.80449       63.45467
H         29.29043       53.56634       62.37886
H         32.29698       52.99871       61.49204
H         31.32009       54.45204       61.07275
H         32.79288       54.62900       62.09195
N         30.01499       52.35300       65.73514
C         29.15963       52.29542       66.92090
C         29.99012       52.14372       68.18241
O         29.80069       52.91508       69.11329
C         28.15718       51.12808       66.75098
C         27.17367       50.96012       67.92093
C         26.15870       49.84735       67.60020
C         25.20709       49.51603       68.76251
N         24.36368       50.64882       69.14594
H         29.83774       51.67651       64.97754
H         28.57228       53.23774       66.99870
H         28.71492       50.17485       66.61398
H         27.57006       51.32293       65.82582
H         26.63771       51.91789       68.08908
H         27.73879       50.69222       68.83986
H         26.71459       48.91548       67.35648
H         25.56209       50.13621       66.70654
H         25.79367       49.17021       69.64180
H         24.55170       48.67636       68.43850
H         23.69564       50.33460       69.88677
H         24.94350       51.42344       69.53907
H         23.81680       50.98911       68.32214
N         30.95772       51.19258       68.26224
C         31.80330       50.99577       69.43759
C         32.54859       52.27745       69.78245
O         32.41906       52.74780       70.90396
C         32.75833       49.78935       69.23371
C         31.92881       48.50196       69.03562
C         32.70966       47.22215       68.99327
O         33.63676       46.96045       68.05175
O         32.44052       46.34889       69.80068
H         31.10474       50.60203       67.43299
H         31.15662       50.74244       70.30814
H         33.38256       49.67571       70.14616
H         33.43299       49.96150       68.36925
H         31.34001       48.55193       68.10292
H         31.20979       48.42432       69.88102
N         33.29078       52.92935       68.84741
C         33.95469       54.19712       69.07737
H         35.03773       54.09326       68.86065
H         33.52710       54.96131       68.39237
H         33.83139       54.55944       70.11907
H         33.35606       52.53324       67.90825
Ca        34.13083       44.74897       68.07668
O         35.13525       45.43015       64.84640
H         34.59613       45.05068       64.10796
H         35.13076       44.72525       65.53926
O         32.05634       44.29438       65.95334
H         32.40476       43.37964       65.80478
H         31.54701       44.50279       65.13098

Ca 1.0



