%chk=holoCaM.loop2.water2.frame354.chk
%nprocshared=20
%mem=10GB
%nosave
#b3lyp/svp scf=(tight,noincore,xqc) Test 
#IOP(5/87=12) Density=Current Pop=(MK,readradii) iop(6/33=2) iop(6/42=6)

holoCaM.loop2.water2.frame354 

   -2  1 
C          4.65498        6.60164       92.70417
C          4.19255        5.39693       93.47115
O          4.04076        4.34819       92.87232
H          5.64334        6.38557       92.24446
H          3.92664        6.83969       91.90180
H          4.76374        7.48800       93.36369
N          3.95619        5.47060       94.80851
C          3.58790        4.32242       95.63392
C          2.29169        3.66586       95.18040
O          1.27276        4.33904       95.11371
C          3.47461        4.76903       97.10361
C          3.09378        3.63491       98.00481
O          3.77981        2.62696       98.04812
O          1.98029        3.72337       98.75665
H          4.08378        6.38544       95.26879
H          4.40730        3.57706       95.57978
H          2.71543        5.57614       97.19645
H          4.45588        5.17184       97.43579
N          2.26582        2.32598       94.89968
C          1.06472        1.60443       94.49199
C          0.66586        0.48937       95.46154
O         -0.38730       -0.09347       95.24160
C          1.30641        0.99942       93.10394
H          3.14216        1.78966       94.97326
H          0.20418        2.30438       94.42768
H          0.40142        0.46845       92.73923
H          1.56329        1.79836       92.37709
H          2.15023        0.27440       93.14301
N          1.45403        0.09137       96.50703
C          1.12440       -1.05146       97.36723
C          1.20722       -0.74834       98.86750
O          0.89646       -1.63424       99.65226
C          2.03628       -2.23526       96.98549
C          3.49491       -1.87884       97.02889
O          4.04691       -1.44229       98.17018
O          4.17861       -1.95979       96.02090
H          2.36936        0.54081       96.64236
H          0.08023       -1.38745       97.18555
H          1.78313       -2.54941       95.94891
H          1.84147       -3.09979       97.65597
N          1.61054        0.45994       99.34626
C          1.68455        0.79633      100.75919
C          2.63869       -0.08209      101.54026
O          2.22030       -0.63576      102.54753
H          1.86018        1.20007       98.68614
H          0.66783        0.74586      101.20952
H          2.03885        1.84561      100.85434
N          3.94020       -0.23693      101.15450
C          4.92560       -0.98187      101.94312
C          6.13032       -0.11477      102.32627
O          7.06748       -0.63738      102.91342
C          5.32630       -2.29843      101.24195
C          6.14480       -2.19807       99.98360
N          6.52213       -3.33645       99.35711
O          6.47510       -1.11499       99.52669
H          4.24582        0.20223      100.27292
H          4.46835       -1.31843      102.89962
H          4.39686       -2.86756      101.01626
H          5.92118       -2.90198      101.96153
H          6.25042       -4.25726       99.73233
H          7.08709       -3.30670       98.49986
N          6.13954        1.23215      102.09708
C          7.18008        2.13381      102.57062
C          8.43034        2.22535      101.71203
O          9.26802        3.05004      102.04868
H          5.30126        1.67639      101.70050
H          7.43567        1.89588      103.62610
H          6.75247        3.16015      102.56659
N          8.63978        1.46301      100.59923
C          9.81625        1.61854       99.73428
C          9.41348        1.87164       98.28865
O          8.24018        1.80238       97.96405
C         10.70355        0.34706       99.81046
C         11.37919        0.22199      101.17453
O          9.94535       -0.81031       99.56469
H          7.94797        0.74456      100.34903
H         10.42782        2.49373      100.04460
H         11.54152        0.40557       99.07911
H          9.76981       -0.84084       98.58908
H         12.02210        1.11058      101.35782
H         10.62920        0.14015      101.98749
H         12.02738       -0.68034      101.18836
N         10.37434        2.11997       97.35097
C         10.12821        2.07737       95.91479
C         10.34882        0.64698       95.46901
O         11.41394        0.10011       95.72313
C         11.07839        3.05198       95.13829
C         10.71013        4.52459       95.45457
C         11.01532        2.79165       93.61328
C         11.61953        5.55604       94.77407
H         11.35828        2.13480       97.65880
H          9.08048        2.36552       95.67451
H         12.12731        2.85860       95.45703
H         10.77881        4.68708       96.55081
H          9.66253        4.72339       95.13758
H         11.32585        1.75383       93.37703
H          9.99016        2.96099       93.22233
H         11.73196        3.42749       93.05791
H         11.31294        6.57845       95.07854
H         12.67788        5.39650       95.06856
H         11.53521        5.51489       93.66862
N          9.40179        0.01313       94.72161
C          9.60491       -1.29616       94.11964
C          9.82188       -1.10087       92.62661
O          9.76934        0.02736       92.16598
C          8.43697       -2.25369       94.44102
C          8.33860       -2.56930       95.91711
O          7.91822       -1.65591       96.81991
O          8.63042       -3.68871       96.30662
H          8.55019        0.52996       94.45804
H         10.54084       -1.76060       94.50117
H          8.63596       -3.20783       93.90802
H          7.47052       -1.86151       94.06724
N         10.16672       -2.13745       91.81587
C         10.59153       -1.93329       90.43237
C          9.53209       -1.26630       89.54886
O          9.87542       -0.24929       88.96188
C         11.15028       -3.24000       89.82688
C         11.64743       -3.04879       88.41151
C         12.65309       -2.10769       88.11865
C         11.10426       -3.81554       87.36663
C         13.09538       -1.93300       86.80455
C         11.55569       -3.64237       86.05521
C         12.54805       -2.70017       85.77380
H         10.22434       -3.08416       92.22068
H         11.46029       -1.23784       90.46658
H         10.39269       -4.04281       89.85706
H         12.00082       -3.58369       90.45515
H         13.09381       -1.50386       88.90105
H         10.33251       -4.54867       87.56566
H         13.86346       -1.20231       86.58585
H         11.13441       -4.23862       85.25661
H         12.89367       -2.56520       84.75734
N          8.25167       -1.72962       89.38157
C          7.25189       -1.07733       88.53355
C          7.15414        0.42049       88.76071
O          7.15999        1.19554       87.81562
C          5.93332       -1.73816       88.97265
C          6.38401       -3.13516       89.31189
C          7.68252       -2.87211       90.06938
H          7.47426       -1.30642       87.46769
H          5.57454       -1.30023       89.93240
H          5.10871       -1.65845       88.23303
H          5.64566       -3.75413       89.86486
H          6.63251       -3.64044       88.35126
H          7.50160       -2.58956       91.13052
H          8.29032       -3.79009       90.01347
N          7.06397        0.87133       90.03432
C          6.89477        2.25990       90.44828
C          8.06492        3.10328       89.97159
O          7.83729        4.09381       89.29084
C          6.72784        2.25903       91.98439
C          5.42158        1.50522       92.36311
C          5.52928        0.87910       93.71177
O          5.78111        1.59095       94.81886
O          5.46056       -0.33634       93.80161
H          7.12422        0.15075       90.77099
H          5.95992        2.67980       90.01332
H          6.70616        3.27897       92.42625
H          7.61628        1.73472       92.40383
H          5.22520        0.66081       91.67149
H          4.53796        2.15382       92.25880
N          9.34840        2.74671       90.24415
C         10.48571        3.48860       89.74502
H         11.42871        2.98801       90.05419
H         10.45730        3.52187       88.63427
H         10.47772        4.52146       90.15038
H          9.52995        1.90197       90.79270
Ca         6.84725        0.23367       96.24242
O          6.09652        2.84551       99.46830
H          5.39749        3.31851       99.98443
H          6.78820        3.53341       99.30713
O          6.93120        3.95352       96.51138
H          7.09700        4.85708       96.87956
H          7.11294        4.04027       95.54224

Ca 1.0



