%chk=holoCaM.loop4.water2.frame263.chk
%nprocshared=20
%mem=10GB
%nosave
#b3lyp/svp scf=(tight,noincore,xqc) Test 
#IOP(5/87=12) Density=Current Pop=(MK,readradii) iop(6/33=2) iop(6/42=6)

holoCaM.loop4.water2.frame263 

   -3  1 
C         30.31749       -3.43442       87.12778
C         29.08017       -3.03267       86.37842
O         29.16660       -2.83478       85.17603
H         31.09603       -2.65132       87.03169
H         30.10473       -3.60698       88.20363
H         30.70496       -4.38489       86.69906
N         27.87937       -2.94430       87.02046
C         26.60844       -2.73664       86.33560
C         25.85307       -1.54383       86.90784
O         25.63906       -1.49596       88.11093
C         25.82130       -4.05365       86.44553
C         24.45408       -4.07626       85.81290
O         23.50917       -4.45304       86.48722
O         24.24110       -3.75507       84.51527
H         27.84879       -3.13168       88.03475
H         26.79010       -2.56319       85.26772
H         25.72197       -4.33488       87.51811
H         26.42473       -4.84305       85.94793
N         25.38648       -0.55867       86.07733
C         24.66391        0.63243       86.52791
C         23.18840        0.61532       86.12508
O         22.43213        1.39957       86.68129
C         25.33493        1.93337       85.96334
C         25.12058        2.07570       84.42096
C         26.82772        1.97168       86.33095
C         25.67556        3.36234       83.80967
H         25.55132       -0.65843       85.07280
H         24.68830        0.66258       87.63954
H         24.84068        2.80532       86.44756
H         24.03261        2.09104       84.20708
H         25.56077        1.21769       83.87663
H         26.95383        1.87555       87.42897
H         27.37894        1.14760       85.82863
H         27.28666        2.93462       86.02827
H         25.41140        3.39254       82.72986
H         25.23483        4.25132       84.30636
H         26.77910        3.40492       83.88363
N         22.74037       -0.14229       85.07998
C         21.38562       -0.05495       84.53317
C         20.70895       -1.41489       84.37284
O         19.58324       -1.44360       83.89341
C         21.41286        0.72616       83.19293
C         22.28612        0.17138       82.09436
O         23.03414       -0.93006       82.27035
O         22.33244        0.75116       81.02176
H         23.41595       -0.73024       84.58150
H         20.73378        0.54148       85.20886
H         21.76612        1.75846       83.40237
H         20.37384        0.80536       82.80550
N         21.30265       -2.57989       84.76280
C         20.66322       -3.88317       84.63123
C         20.47681       -4.36266       83.19800
O         19.88179       -5.41709       83.02896
H         22.21598       -2.54577       85.22690
H         19.67555       -3.84379       85.14042
H         21.27669       -4.64785       85.15213
N         20.94146       -3.66564       82.11981
C         20.70411       -4.07660       80.73679
C         21.28561       -5.44352       80.38635
O         20.65627       -6.15276       79.61283
C         21.14571       -2.99201       79.72385
C         22.60583       -2.61134       79.72498
O         23.47619       -3.13385       80.60605
O         23.00241       -1.77777       78.92709
H         21.44404       -2.78716       82.27794
H         19.60089       -4.15313       80.60259
H         20.56469       -2.06637       79.93087
H         20.87533       -3.34114       78.70373
N         22.45968       -5.88848       80.91711
C         23.02403       -7.20492       80.64659
C         24.42306       -7.16085       80.05487
O         25.03344       -8.21482       79.96890
H         22.96053       -5.28781       81.58444
H         22.38177       -7.80979       79.96983
H         23.08137       -7.74141       81.61747
N         24.99020       -6.00261       79.60312
C         26.34411       -5.92520       79.05276
C         27.15982       -4.84764       79.75544
O         26.63870       -4.12630       80.59049
C         26.26137       -5.59866       77.54410
C         25.68790       -6.77115       76.73797
C         25.64605       -6.44714       75.26730
N         24.84744       -5.46016       74.79917
O         26.33529       -7.08858       74.48808
H         24.43514       -5.14003       79.60700
H         26.88809       -6.88569       79.18374
H         27.27508       -5.40372       77.13462
H         25.65568       -4.67667       77.39928
H         24.66510       -7.03114       77.08168
H         26.34798       -7.65339       76.89735
H         24.24745       -4.91945       75.43869
H         24.81950       -5.24400       73.79171
N         28.46378       -4.66208       79.39035
C         29.30268       -3.56481       79.85274
C         29.46053       -2.61594       78.67887
O         29.82490       -3.03397       77.58978
C         30.66723       -4.07842       80.38967
C         31.61535       -2.90971       80.72420
C         30.46660       -4.92022       81.65856
H         28.86620       -5.28168       78.67266
H         28.81194       -3.00859       80.68239
H         31.15560       -4.70642       79.61281
H         32.58206       -3.29396       81.11367
H         31.84029       -2.30924       79.81801
H         31.16538       -2.24289       81.49037
H         29.79621       -5.78258       81.46438
H         31.44099       -5.30933       82.02311
H         30.03023       -4.29578       82.46614
N         29.18205       -1.29994       78.86211
C         29.15203       -0.29109       77.81488
C         30.38644        0.59300       77.91409
O         31.21742        0.38935       78.78667
C         27.81255        0.47773       78.01160
C         27.53642        1.66646       77.12785
N         27.44407        1.54238       75.78591
O         27.36779        2.76244       77.64233
H         28.96372       -0.98654       79.81554
H         29.18158       -0.76338       76.80885
H         27.78564        0.84630       79.05901
H         26.97619       -0.24420       77.88750
H         27.57565        0.62939       75.32994
H         27.24860        2.37105       75.20395
N         30.58916        1.57155       76.99083
C         31.69999        2.51571       77.00744
C         31.63334        3.37719       78.25904
O         32.63627        3.52026       78.93980
C         31.62702        3.37569       75.72453
C         32.81539        4.27944       75.51222
C         34.11029        3.74039       75.41174
C         32.63642        5.66438       75.36348
C         35.20574        4.57242       75.16943
C         33.73380        6.49434       75.11393
C         35.02273        5.94967       75.01486
O         36.08861        6.73607       74.76440
H         29.91506        1.64716       76.21992
H         32.65551        1.94842       76.98579
H         30.67898        3.95859       75.72415
H         31.59479        2.68971       74.84938
H         34.27506        2.67513       75.50965
H         31.64733        6.10133       75.42439
H         36.19678        4.14312       75.09127
H         33.57982        7.55863       74.98986
H         36.00403        7.69132       74.63506
N         30.45478        3.95069       78.63568
C         30.26338        4.74248       79.85538
C         30.41882        3.93166       81.15681
O         30.30822        4.52985       82.21801
C         28.84976        5.38402       79.83921
C         28.56812        6.32166       78.64347
C         29.38659        7.58585       78.66468
O         30.72619        7.54454       78.53850
O         28.82939        8.66789       78.76057
H         29.64975        3.80904       78.01099
H         31.02145        5.54997       79.87900
H         28.67628        5.96394       80.77237
H         28.10222        4.55967       79.81284
H         27.49316        6.60297       78.69127
H         28.72517        5.80435       77.67493
N         30.67701        2.59051       81.16478
C         30.82928        1.77187       82.36927
C         32.24809        1.21949       82.49856
O         32.49369        0.47247       83.43619
C         29.83945        0.58438       82.31166
C         28.38353        1.04243       82.19020
C         27.42299       -0.11279       82.11417
O         27.27860       -0.93075       83.16773
O         26.68953       -0.24583       81.14842
H         30.76622        2.10374       80.27486
H         30.62179        2.36766       83.28512
H         29.94677       -0.03948       83.22724
H         30.10109       -0.04249       81.43753
H         28.26549        1.66995       81.28275
H         28.12290        1.65439       83.07790
N         33.23415        1.54071       81.61134
C         34.58203        1.01480       81.67268
H         35.29827        1.85283       81.80400
H         34.72070        0.29252       82.50302
H         34.81180        0.49768       80.71679
H         33.04395        2.19300       80.84715
Ca        25.50815       -2.33787       83.29522
O         25.08306       -5.81708       82.85122
H         24.40963       -6.25359       83.43025
H         25.66728       -6.55348       82.54375
O         27.51636       -4.60179       83.19366
H         27.85524       -3.67384       83.14341
H         28.00270       -5.01559       83.94845

Ca 1.0



