%chk=holoCaM-CaMKII.loop1.water2.frame55.chk
%nprocshared=20
%mem=10GB
%nosave
#b3lyp/svp scf=(tight,noincore,xqc) Test 
#IOP(5/87=12) Density=Current Pop=(MK,readradii) iop(6/33=2) iop(6/42=6)

holoCaM-CaMKII.loop1.water2.frame55 

   0  1 
C          1.47032       59.06582       90.40374
C          0.05145       59.41267       90.75609
O         -0.50766       58.76157       91.61877
H          2.11065       59.16493       91.30569
H          1.51847       58.02090       90.03331
H          1.87328       59.73754       89.61600
N         -0.57611       60.45079       90.13828
C         -1.93898       60.91709       90.41383
C         -2.98729       59.87785       89.97829
O         -3.53800       60.00763       88.89297
C         -2.11877       62.25779       89.65083
C         -3.39231       62.99233       89.93464
O         -3.62252       64.02758       89.33327
O         -4.26523       62.55223       90.85666
H         -0.01984       60.97528       89.44399
H         -2.04574       61.14613       91.49774
H         -2.04851       62.06666       88.55742
H         -1.29267       62.94822       89.93196
N         -3.28882       58.79544       90.75731
C         -4.17227       57.71675       90.30661
C         -5.64821       58.11586       90.19722
O         -6.40571       57.33944       89.63202
C         -4.06559       56.47917       91.23543
C         -2.64783       55.89046       91.40566
C         -2.00705       55.44157       90.08382
C         -0.65465       54.75748       90.33208
N         -0.03308       54.35181       89.07151
H         -2.82703       58.70244       91.66856
H         -3.83269       57.41341       89.29309
H         -4.71881       55.67254       90.83561
H         -4.44317       56.75310       92.24576
H         -2.73627       55.00898       92.07818
H         -1.97963       56.61928       91.90730
H         -1.84370       56.32390       89.42945
H         -2.68416       54.72627       89.56830
H         -0.80809       53.85836       90.97009
H          0.02770       55.45520       90.86721
H          0.87071       53.86691       89.27524
H         -0.66019       53.69389       88.55389
H          0.16089       55.19302       88.48088
N         -6.14306       59.26267       90.74652
C         -7.55681       59.66377       90.67903
C         -7.73135       61.03697       90.02225
O         -8.85682       61.51279       89.96035
C         -8.20392       59.59958       92.08466
C         -7.37030       60.29727       93.10145
O         -6.87242       59.65549       94.01357
O         -7.00511       61.57305       92.92012
H         -5.49821       59.87397       91.26830
H         -8.14781       58.95861       90.05508
H         -8.27771       58.53014       92.38620
H         -9.23470       60.01285       92.06861
N         -6.68962       61.69076       89.43044
C         -6.84155       62.90443       88.64210
C         -7.14467       64.18724       89.39875
O         -7.30934       65.19018       88.71756
H         -5.76429       61.24754       89.41157
H         -7.63885       62.73092       87.88598
H         -5.89756       63.08143       88.08380
N         -7.24801       64.27611       90.76021
C         -7.62872       65.53566       91.40993
C         -6.60532       66.66416       91.24319
O         -6.97481       67.80542       91.48199
C         -8.02606       65.34419       92.89170
C         -6.92636       64.84670       93.78406
O         -7.09638       63.72241       94.50191
O         -5.90364       65.48982       93.91840
H         -7.12688       63.43094       91.32989
H         -8.55850       65.87564       90.90027
H         -8.87306       64.62687       92.94293
H         -8.38223       66.31671       93.29530
N         -5.31998       66.43650       90.84390
C         -4.35949       67.49959       90.56282
C         -3.15328       67.50374       91.48238
O         -2.25091       68.28965       91.22688
H         -5.00549       65.46935       90.70810
H         -4.82634       68.50662       90.62640
H         -4.00881       67.36513       89.51714
N         -3.07949       66.71705       92.59465
C         -1.95693       66.74150       93.53104
C         -1.43819       65.33577       93.80407
O         -2.00844       64.36298       93.32641
C         -2.38303       67.42383       94.86049
C         -2.67959       68.92082       94.68373
O         -3.47546       66.76174       95.44564
H         -3.87205       66.10774       92.82260
H         -1.10888       67.32589       93.10915
H         -1.54237       67.37878       95.58415
H         -4.30351       67.07889       95.00129
H         -1.77742       69.44493       94.30340
H         -3.51856       69.08418       93.97556
H         -2.95303       69.36183       95.66644
N         -0.32954       65.17465       94.58107
C          0.24799       63.88980       94.95616
C          0.27689       63.80975       96.48162
O          0.82546       64.70169       97.11516
C          1.67466       63.75274       94.33679
C          1.58744       63.80392       92.78552
C          2.34573       62.44231       94.79606
C          2.94783       63.78134       92.08238
H          0.15189       66.01996       94.92575
H         -0.35919       63.04558       94.55897
H          2.29873       64.60388       94.68978
H          1.08851       64.74709       92.47818
H          0.97559       62.95269       92.41156
H          3.37951       62.35362       94.40905
H          2.43936       62.42101       95.89756
H          1.75783       61.56139       94.46154
H          2.79632       63.87013       90.98584
H          3.57135       64.63429       92.42424
H          3.48969       62.83126       92.26154
N         -0.24739       62.72994       97.12997
C         -0.16016       62.51818       98.57290
C          1.02388       61.62002       98.87110
O          1.70382       61.19612       97.95265
C         -1.46515       61.87718       99.13461
C         -2.69623       62.77516       98.97869
O         -1.68483       60.60248       98.57661
H         -0.58772       61.95274       96.56004
H          0.02232       63.48294       99.09515
H         -1.35676       61.73023      100.22876
H         -2.21199       60.70574       97.74436
H         -2.53844       63.74039       99.50299
H         -2.89590       62.96409       97.90974
H         -3.58311       62.27092       99.42160
N          1.33806       61.28714      100.14923
C          2.44180       60.39227      100.48435
C          2.24081       59.02684       99.83955
O          3.13403       58.55930       99.14734
C          2.59281       60.25305      102.02013
C          3.01427       61.58195      102.66218
O          1.38895       59.80884      102.59268
H          0.76172       61.67768      100.90858
H          3.39655       60.81854      100.09930
H          3.40115       59.50905      102.21202
H          1.60967       59.44679      103.48973
H          2.25366       62.37372      102.50168
H          3.14841       61.44473      103.75545
H          3.98025       61.92277      102.23230
N          1.07772       58.34220      100.01740
C          0.82061       57.00861       99.47951
C          0.97736       56.96696       97.96683
O          1.70073       56.10888       97.48034
C         -0.57851       56.54350       99.93357
C         -0.88682       55.08738       99.54411
C         -2.14938       54.54601      100.23786
C         -3.43640       55.29711       99.86424
N         -4.58774       54.72663      100.56404
H          0.33592       58.79403      100.57368
H          1.55462       56.30154       99.92831
H         -1.35377       57.22796       99.52794
H         -0.59657       56.60693      101.04467
H         -0.04161       54.44536       99.87645
H         -0.98007       54.99576       98.44036
H         -2.00251       54.59655      101.33947
H         -2.26668       53.47652       99.95733
H         -3.59885       55.23003       98.76601
H         -3.35174       56.36829      100.14508
H         -5.44942       55.25379      100.29459
H         -4.70864       53.72104      100.30363
H         -4.45418       54.80811      101.59874
N          0.36742       57.88573       97.16561
C          0.51491       57.90314       95.70757
C          1.98137       57.94763       95.31372
O          2.43842       57.03624       94.63721
C         -0.23442       59.10901       95.09712
C         -1.75300       58.95976       95.24829
C         -2.50264       60.15494       94.74110
O         -2.36716       61.24953       95.25434
O         -3.41479       60.00604       93.77964
H         -0.19453       58.61839       97.62275
H          0.08078       56.96901       95.28374
H         -0.00335       59.18673       94.01583
H          0.11781       60.03941       95.58571
H         -2.03219       58.81885       96.31060
H         -2.08126       58.05749       94.68656
N          2.78562       58.96384       95.71833
C          4.19403       59.01317       95.39849
H          4.70617       58.12093       95.81832
H          4.33417       59.04211       94.29774
H          4.64925       59.92372       95.84325
H          2.39057       59.72012       96.28303
Ca        -4.85378       61.68440       93.44830
O         -4.22733       63.82738       95.84664
H         -4.91834       63.60721       96.52008
H         -3.61235       64.43819       96.32292
O         -5.48445       60.97553       96.30831
H         -6.28405       61.52096       96.09850
H         -5.67407       60.58826       97.19855

Ca 1.0



