%chk=holoCaM.loop3.water2.frame127.chk
%nprocshared=20
%mem=10GB
%nosave
#b3lyp/svp scf=(tight,noincore,xqc) Test 
#IOP(5/87=12) Density=Current Pop=(MK,readradii) iop(6/33=2) iop(6/42=6)

holoCaM.loop3.water2.frame127 

   0  1 
C          6.15832      100.62496        3.43484
C          5.92812       99.36275        4.20844
O          6.63910       99.13220        5.17527
H          7.19726      100.62633        3.04196
H          5.45681      100.71068        2.57912
H          6.02032      101.50044        4.10249
N          4.94704       98.48878        3.84527
C          4.72808       97.23105        4.54809
C          5.95943       96.35815        4.36109
O          6.28235       96.04784        3.22159
C          3.46158       96.53333        3.99860
C          3.05766       95.31928        4.78700
O          3.73636       94.95340        5.88833
O          2.08351       94.67202        4.44187
H          4.34252       98.72811        3.04363
H          4.55144       97.46035        5.62325
H          3.62288       96.24864        2.93544
H          2.60834       97.24528        4.04130
N          6.72500       95.96606        5.42258
C          7.99875       95.27004        5.23842
C          7.84851       93.76064        5.14780
O          8.82972       93.10544        4.82462
C          9.03694       95.70781        6.29071
C          9.27636       97.23632        6.31959
C          9.64269       97.87447        4.96244
C         10.92550       97.30479        4.33952
N         11.20040       97.94109        3.05093
H          6.44787       96.25850        6.37222
H          8.41500       95.55577        4.24950
H         10.00042       95.19777        6.07809
H          8.70590       95.38368        7.30148
H         10.07995       97.45250        7.05611
H          8.35424       97.73574        6.68467
H          9.77398       98.96745        5.11734
H          8.80096       97.74914        4.24973
H         10.81962       96.21135        4.17507
H         11.77993       97.47704        5.03005
H         12.07900       97.54033        2.65033
H         10.41388       97.75603        2.38578
H         11.32135       98.97253        3.17351
N          6.64538       93.14722        5.32819
C          6.39566       91.74887        4.98757
C          5.47126       91.65380        3.77545
O          5.27388       90.54960        3.28747
C          5.90075       90.95541        6.21060
C          4.76978       91.61982        6.92497
O          3.57763       91.83288        6.34285
O          4.94425       92.00845        8.06984
H          5.84179       93.70886        5.63401
H          7.33606       91.25540        4.65943
H          6.74928       90.88985        6.92778
H          5.61887       89.91951        5.92692
N          4.94439       92.76789        3.17737
C          4.26624       92.75448        1.89393
C          2.96460       91.99177        1.82795
O          2.43204       91.91537        0.72896
H          5.11027       93.69932        3.57392
H          4.96468       92.31834        1.14647
H          4.05724       93.80227        1.58470
N          2.38905       91.37629        2.90343
C          1.20621       90.53404        2.73706
C         -0.03094       91.30797        2.28878
O         -0.98422       90.67290        1.86122
C          0.92825       89.68359        3.99441
C          0.35817       90.45850        5.15801
N         -0.80998       90.07460        5.72428
O          0.95615       91.42309        5.60622
H          2.84049       91.43395        3.82539
H          1.46949       89.80902        1.93368
H          1.87764       89.19685        4.30842
H          0.21874       88.87304        3.72197
H         -1.32668       89.25515        5.37357
H         -1.19138       90.58246        6.53362
N         -0.09941       92.66951        2.37927
C         -1.23371       93.45510        1.91483
C         -1.99945       94.11345        3.04469
O         -2.90487       94.88135        2.75170
H          0.68033       93.19033        2.80441
H         -1.95605       92.83617        1.34230
H         -0.84309       94.23665        1.22749
N         -1.73017       93.83871        4.35347
C         -2.44890       94.42725        5.47902
C         -1.48160       95.22629        6.33233
O         -0.29131       95.24582        6.04659
C         -3.11272       93.30618        6.32159
C         -4.37622       92.74128        5.70124
C         -4.38158       92.11523        4.44148
C         -5.58894       92.84086        6.41162
C         -5.57578       91.62382        3.89980
C         -6.77570       92.34048        5.87386
C         -6.77487       91.73501        4.61191
O         -7.91667       91.25638        4.07754
H         -0.97969       93.17186        4.58549
H         -3.23162       95.14318        5.14356
H         -3.39173       93.71250        7.31474
H         -2.37775       92.50221        6.51854
H         -3.47287       92.00498        3.87013
H         -5.62130       93.30626        7.38920
H         -5.56944       91.15474        2.92406
H         -7.69506       92.42733        6.43980
H         -8.76516       91.31662        4.54024
N         -1.93892       95.91343        7.41820
C         -1.06590       96.67915        8.29998
C         -1.80052       97.00743        9.59585
O         -2.92638       97.48563        9.55117
C         -0.45099       97.92359        7.58689
C          0.72252       98.47457        8.43198
C         -1.50417       98.99698        7.26546
C          1.54304       99.55477        7.72958
H         -2.94352       95.85300        7.64493
H         -0.22037       96.01296        8.56270
H         -0.00932       97.58684        6.62624
H          1.42445       97.63491        8.62479
H          0.35496       98.85982        9.40671
H         -1.92862       99.42884        8.19567
H         -1.05761       99.82232        6.67508
H         -2.32448       98.56022        6.65857
H          0.94093      100.46686        7.54987
H          2.40543       99.83159        8.37290
H          1.93729       99.16936        6.76439
N         -1.20859       96.75592       10.79542
C         -1.86320       96.91788       12.08550
C         -1.31167       98.12518       12.81226
O         -0.45142       98.80506       12.27944
C         -1.66300       95.62879       12.91040
O         -0.30532       95.43219       13.22036
H         -0.22972       96.45140       10.80136
H         -2.95384       97.08518       11.95026
H         -2.07509       94.75043       12.36112
H         -2.22523       95.68093       13.86488
H          0.07914       94.84558       12.51831
N         -1.77879       98.46256       14.04386
C         -1.28062       99.60550       14.80124
C          0.20910       99.48419       15.06484
O          0.92951      100.44343       14.82741
C         -2.03496       99.72667       16.12741
H         -2.51921       97.87841       14.46213
H         -1.47585      100.54251       14.23214
H         -1.88998       98.82058       16.75281
H         -1.67699      100.61718       16.68727
H         -3.12053       99.85685       15.92761
N          0.74229       98.31428       15.51979
C          2.16447       98.12768       15.79786
C          3.02639       98.52130       14.61031
O          3.91112       99.35063       14.76957
C          2.43881       96.66473       16.17872
H          0.10519       97.51305       15.65419
H          2.44732       98.76239       16.66671
H          3.51349       96.52454       16.42324
H          1.83860       96.38156       17.06954
H          2.17224       95.97939       15.34473
N          2.80994       97.97356       13.38475
C          3.61118       98.29311       12.20379
C          3.54127       99.77382       11.86368
O          4.57451      100.42815       11.88175
C          3.12301       97.45651       11.00616
C          3.42321       95.96434       11.20158
C          2.75932       95.14491       10.14226
O          3.48757       94.40347        9.30573
O          1.54743       95.10794       10.05989
H          2.03635       97.29653       13.29751
H          4.67639       98.03540       12.40311
H          3.61936       97.78938       10.06695
H          2.02852       97.61284       10.90110
H          3.05291       95.59698       12.17977
H          4.52539       95.81674       11.16735
N          2.36164      100.36235       11.52541
C          2.22766      101.75826       11.16335
H          1.52419      102.25412       11.86436
H          3.19612      102.29944       11.19095
H          1.81572      101.82925       10.13446
H          1.51078       99.79485       11.50645
Ca         2.47232       93.22713        7.68491
O          1.40789       90.48394        8.54489
H          0.42218       90.44007        8.46702
H          1.73715       89.82784        7.88085
O         -0.60541       92.96599        8.99936
H         -0.80985       93.86526        9.35586
H         -0.37998       92.43343        9.80269

Ca 1.0



