%chk=holoCaM.loop1.water2.frame255.chk
%nprocshared=20
%mem=10GB
%nosave
#b3lyp/svp scf=(tight,noincore,xqc) Test 
#IOP(5/87=12) Density=Current Pop=(MK,readradii) iop(6/33=2) iop(6/42=6)

holoCaM.loop1.water2.frame255 

   0  1 
C         53.14100      102.66298       62.26219
C         53.43714      103.06453       60.84818
O         54.52581      103.55516       60.59040
H         52.10913      102.26509       62.36257
H         53.86021      101.88872       62.59767
H         53.23095      103.55656       62.91617
N         52.49677      102.91247       59.87630
C         52.65432      103.46255       58.53956
C         52.23777      104.92028       58.59668
O         51.10464      105.20132       58.96292
C         51.82283      102.64297       57.53797
C         51.85282      103.24151       56.16416
O         53.01610      103.39108       55.50414
O         50.81197      103.61102       55.64779
H         51.57250      102.53853       60.14265
H         53.71668      103.38146       58.21792
H         50.76716      102.59152       57.88259
H         52.22264      101.60520       57.49179
N         53.13377      105.90171       58.29060
C         52.89583      107.32239       58.47782
C         52.85588      108.07794       57.15674
O         52.48753      109.24417       57.17619
C         54.02986      107.92972       59.34398
C         54.48504      107.07971       60.54918
C         53.39014      106.68249       61.54189
C         52.72793      107.87936       62.22429
N         51.71225      107.42029       63.17033
H         54.05707      105.63604       57.96417
H         51.91574      107.45815       58.98455
H         53.73959      108.95376       59.66101
H         54.94129      108.02763       58.71022
H         55.29171      107.62739       61.08326
H         54.93923      106.14171       60.16346
H         53.85777      106.04022       62.31993
H         52.61859      106.07769       61.02750
H         52.24694      108.52969       61.46252
H         53.49901      108.47219       62.76474
H         52.15418      106.83209       63.91419
H         51.25692      108.24870       63.61516
H         50.98405      106.86055       62.66883
N         53.24569      107.49972       55.97985
C         53.20457      108.18375       54.69059
C         52.22044      107.51729       53.72645
O         52.03158      108.04524       52.63959
C         54.63251      108.38172       54.12249
C         55.46024      107.14811       53.87930
O         54.98895      105.91405       54.13271
O         56.59639      107.27648       53.45125
H         53.58831      106.53163       55.98627
H         52.80845      109.21368       54.82438
H         55.19637      109.01588       54.84283
H         54.56247      108.94481       53.16652
N         51.48427      106.42117       54.08652
C         50.30222      105.97541       53.35758
C         50.52610      104.83009       52.39186
O         49.54296      104.32388       51.86985
H         51.60978      106.01895       55.02430
H         49.81429      106.82700       52.83699
H         49.57053      105.62395       54.11756
N         51.76935      104.37347       52.08243
C         52.01568      103.27160       51.14337
C         51.61627      101.88136       51.67334
O         51.77860      100.92133       50.93213
C         53.48591      103.29996       50.65462
C         54.48717      103.42593       51.76790
O         54.51128      102.53070       52.76567
O         55.24674      104.38066       51.79561
H         52.57090      104.87613       52.48592
H         51.40748      103.43887       50.22514
H         53.60945      104.18593       49.99231
H         53.69898      102.40002       50.03836
N         51.04134      101.68709       52.89611
C         50.55494      100.39233       53.36678
C         51.62574       99.40827       53.81293
O         51.25229       98.33402       54.26150
H         50.84679      102.49674       53.49139
H         49.90290       99.93470       52.59034
H         49.92329      100.56939       54.26444
N         52.95544       99.69662       53.76126
C         54.00701       98.81890       54.27961
C         54.81929       99.54111       55.35202
O         54.55776      100.69727       55.64005
C         54.91609       98.31843       53.12054
C         54.24716       97.20724       52.29815
O         55.33409       99.37840       52.29712
H         53.24754      100.59332       53.36112
H         53.57620       97.92677       54.78366
H         55.82654       97.83974       53.53755
H         54.59512       99.59396       51.66753
H         53.30628       97.55834       51.82770
H         54.94410       96.85786       51.50564
H         54.02102       96.34155       52.95830
N         55.80965       98.87729       56.01439
C         56.69681       99.46187       57.01852
C         58.14413       99.33169       56.52749
O         58.56553       98.25297       56.13597
C         56.41957       98.80576       58.41488
C         55.11538       99.43392       59.00117
C         57.59545       98.99564       59.39265
C         54.69518       98.91270       60.37851
H         55.95313       97.87964       55.79640
H         56.50588      100.54889       57.14641
H         56.29916       97.70741       58.28753
H         54.27418       99.25435       58.29864
H         55.24789      100.53642       59.09919
H         57.77900      100.06435       59.59063
H         57.40392       98.48132       60.35557
H         58.51816       98.53117       58.98779
H         54.52703       97.81742       60.34702
H         55.45069       99.15558       61.15420
H         53.75183       99.41391       60.68675
N         58.96862      100.41999       56.58380
C         60.36960      100.47262       56.16811
C         61.27025      100.43411       57.38658
O         60.78379      100.26155       58.48700
C         60.64183      101.79713       55.38926
C         59.88919      101.86001       54.06333
O         60.38993      102.92082       56.20580
H         58.60162      101.26507       57.02539
H         60.63359       99.60031       55.53205
H         61.70532      101.86417       55.09173
H         59.49489      103.28859       55.99917
H         60.20467      101.01905       53.41154
H         58.79954      101.80303       54.24658
H         60.13735      102.81250       53.54617
N         62.61247      100.60917       57.25802
C         63.53429      100.69311       58.38591
C         63.15341      101.86449       59.29612
O         63.01565      101.67490       60.49594
C         64.97912      100.87983       57.85215
C         66.01897      100.75622       58.96588
O         65.25473       99.89677       56.88534
H         62.99860      100.71452       56.31023
H         63.49702       99.73504       58.95215
H         65.04589      101.89350       57.38674
H         65.87514      100.30491       56.22502
H         65.84462      101.50368       59.76588
H         65.97862       99.73486       59.40325
H         67.03299      100.91714       58.54270
N         62.94562      103.10330       58.76027
C         62.60226      104.31207       59.51720
C         61.37748      104.09637       60.38597
O         61.42937      104.34522       61.58224
C         62.37860      105.47469       58.50850
C         62.07763      106.84637       59.14207
C         62.15017      107.95313       58.06645
C         61.89188      109.36806       58.61396
N         60.47151      109.61518       58.86660
H         63.02343      103.18583       57.73433
H         63.45777      104.58570       60.17304
H         61.55280      105.22391       57.80401
H         63.31484      105.56587       57.91603
H         62.84966      107.06812       59.91037
H         61.08159      106.82069       59.63247
H         61.45451      107.75093       57.22230
H         63.18690      107.94164       57.66412
H         62.23422      110.10679       57.85473
H         62.49133      109.53404       59.53647
H         60.07218      108.91012       59.52400
H         60.36170      110.56909       59.28144
H         59.94778      109.59103       57.96043
N         60.23762      103.62704       59.82714
C         58.98100      103.42168       60.54248
C         59.16561      102.39988       61.66023
O         58.88186      102.71512       62.80755
C         57.89373      103.02927       59.51071
C         57.67740      104.20405       58.52061
C         56.78909      103.90686       57.34858
O         57.10279      102.97338       56.44131
O         55.81875      104.59878       57.14036
H         60.28148      103.40003       58.82359
H         58.65036      104.37742       61.00802
H         56.93615      102.78587       60.01656
H         58.23693      102.13232       58.97114
H         58.63265      104.53264       58.07156
H         57.26865      105.06625       59.09237
N         59.69463      101.17594       61.40533
C         59.97528      100.19577       62.43265
H         60.68677      100.61587       63.17601
H         59.03824       99.88704       62.93901
H         60.44696       99.29764       61.97546
H         59.94227      100.94498       60.44620
Ca        55.77492      102.80939       54.62078
O         58.15295      104.48300       54.02992
H         57.94493      105.32805       54.49872
H         58.31344      104.74139       53.08824
O         57.39171      102.14124       52.26349
H         57.34250      102.49218       51.34158
H         56.77012      101.37400       52.27721

Ca 1.0



