%chk=holoCaM.loop3.water1.frame171.chk
%nprocshared=20
%mem=10GB
%nosave
#b3lyp/svp scf=(tight,noincore,xqc) Test 
#IOP(5/87=12) Density=Current Pop=(MK,readradii) iop(6/33=2) iop(6/42=6)

holoCaM.loop3.water1.frame171 

   0  1 
C         23.24549       88.07480       -4.72519
C         24.00351       86.84211       -4.33174
O         25.08907       86.63786       -4.84933
H         22.28368       88.15410       -4.17615
H         23.85807       88.97101       -4.49338
H         23.03076       88.04816       -5.81359
N         23.50165       85.99821       -3.38711
C         24.17347       84.79380       -2.90606
C         24.03692       83.66286       -3.92121
O         23.19412       82.79076       -3.75898
C         23.58178       84.43278       -1.52678
C         24.30546       83.35379       -0.78480
O         25.24893       82.75556       -1.27297
O         23.92172       83.08292        0.47200
H         22.61187       86.26609       -2.93751
H         25.24772       85.01642       -2.71268
H         22.50761       84.16425       -1.61455
H         23.66252       85.33023       -0.88572
N         24.83459       83.64459       -5.02088
C         24.75962       82.65034       -6.08425
C         25.16311       81.28467       -5.56003
O         24.39080       80.34627       -5.70049
C         25.62214       83.15059       -7.26114
C         25.51421       82.32516       -8.55259
C         26.01024       83.13036       -9.77381
C         27.47041       83.60372       -9.67451
N         27.82708       84.42760      -10.83038
H         25.53679       84.38839       -5.11482
H         23.71428       82.61094       -6.46688
H         26.68536       83.24621       -6.95303
H         25.23235       84.16722       -7.49482
H         24.44399       82.09615       -8.75045
H         26.06169       81.36456       -8.44175
H         25.35825       84.02601       -9.88297
H         25.88665       82.51094      -10.68846
H         28.14517       82.72243       -9.61611
H         27.61338       84.22006       -8.76169
H         27.72387       83.88027      -11.71492
H         27.21350       85.27506      -10.86763
H         28.81974       84.74195      -10.73503
N         26.34302       81.11334       -4.89367
C         26.76349       79.82804       -4.32926
C         25.80374       79.27648       -3.26713
O         25.93571       78.11403       -2.90971
C         28.19431       79.93105       -3.76059
C         28.28139       80.76334       -2.50134
O         28.76877       80.26320       -1.50342
O         27.83258       82.04025       -2.45750
H         26.96744       81.92863       -4.80627
H         26.78748       79.10750       -5.17788
H         28.86050       80.36284       -4.53760
H         28.56955       78.90675       -3.53494
N         24.80972       80.04357       -2.73222
C         23.78004       79.54581       -1.83418
C         24.23785       79.10179       -0.45777
O         23.38250       78.63249        0.28015
H         24.72449       81.02065       -3.02499
H         23.26451       78.69809       -2.33470
H         23.02748       80.35043       -1.67845
N         25.52822       79.20049       -0.01771
C         25.93584       78.68977        1.29742
C         25.28550       79.42688        2.46637
O         25.40562       78.96191        3.59114
C         27.47682       78.67641        1.43240
C         28.10854       80.04238        1.57560
N         29.04646       80.27466        2.52247
O         27.79614       80.94028        0.81516
H         26.24088       79.58995       -0.64818
H         25.60599       77.62795        1.33046
H         27.88667       78.18819        0.52254
H         27.77264       78.05216        2.30278
H         29.34958       79.52991        3.16565
H         29.49801       81.19805        2.59327
N         24.61560       80.59813        2.27741
C         23.96771       81.35518        3.33325
C         24.67488       82.66364        3.61024
O         24.16344       83.42312        4.42113
H         24.58258       81.00253        1.33700
H         23.93883       80.78867        4.28894
H         22.91736       81.55063        3.02567
N         25.88562       82.96586        3.04681
C         26.65977       84.14156        3.41408
C         27.10548       84.93508        2.15209
O         28.18237       84.26583        1.53779
C         27.88652       83.67818        4.23272
C         27.49639       82.97179        5.50751
C         27.54800       81.56977        5.58737
C         27.09506       83.70766        6.63318
C         27.20659       80.91426        6.77187
C         26.76968       83.05054        7.82501
C         26.82524       81.65014        7.89727
O         26.51994       81.00262        9.03968
H         26.33246       82.29754        2.40725
H         26.04797       84.81547        4.05378
H         28.56661       84.52160        4.48070
H         28.46720       82.97717        3.60080
H         27.84183       80.98087        4.73153
H         27.05578       84.78910        6.59363
H         27.24578       79.83288        6.81555
H         26.47965       83.63002        8.69212
H         26.26952       81.47313        9.84727
N         27.56760       86.26116        2.59187
C         28.03154       87.17953        1.53780
C         29.13112       88.01634        2.17144
O         28.88094       88.65682        3.18349
C         26.88781       88.09903        0.98658
C         25.69767       87.27287        0.42850
C         27.45304       89.04763       -0.09575
C         24.52220       88.13841       -0.04189
H         26.86765       86.74087        3.20600
H         28.45935       86.60585        0.68565
H         26.50330       88.72122        1.82562
H         25.29890       86.62346        1.23435
H         26.03383       86.62433       -0.40903
H         28.28241       89.66318        0.30679
H         27.83072       88.47017       -0.96629
H         26.68856       89.76834       -0.44632
H         24.17225       88.79303        0.78377
H         24.79349       88.75657       -0.92037
H         23.67403       87.49719       -0.35046
N         30.37197       88.06869        1.61369
C         31.48021       88.83400        2.18080
C         31.68118       90.12505        1.41095
O         30.94929       90.38090        0.47287
C         32.75165       87.96460        2.16838
O         33.08856       87.62161        0.85067
H         30.52825       87.57425        0.72510
H         31.25870       89.12200        3.23122
H         32.56139       87.03985        2.75637
H         33.59605       88.51880        2.63311
H         33.91685       87.07831        0.90271
N         32.65086       91.01016        1.77596
C         32.90670       92.24829        1.04468
C         33.32196       91.94208       -0.38161
O         32.72022       92.46884       -1.30776
C         34.00665       93.05800        1.74076
H         33.23197       90.79123        2.59862
H         31.98917       92.87914        1.04359
H         33.68966       93.30985        2.77536
H         34.95728       92.48593        1.78886
H         34.18519       94.00755        1.19151
N         34.33328       91.06189       -0.62224
C         34.80202       90.69519       -1.95446
C         33.67362       90.17523       -2.82534
O         33.50396       90.67208       -3.92948
C         35.89847       89.62762       -1.84320
H         34.78183       90.61427        0.19325
H         35.25124       91.58783       -2.44449
H         35.50870       88.70979       -1.35156
H         36.27960       89.35949       -2.85153
H         36.74722       90.01695       -1.24114
N         32.85101       89.18562       -2.37983
C         31.76507       88.61890       -3.17562
C         30.80609       89.70094       -3.64631
O         30.62243       89.84629       -4.84668
C         31.02518       87.55228       -2.34312
C         29.92918       86.82713       -3.13055
C         29.28372       85.78520       -2.27046
O         30.02691       84.78614       -1.75697
O         28.08737       85.83622       -2.03498
H         33.00891       88.82398       -1.42782
H         32.20875       88.11651       -4.06449
H         30.57227       88.03281       -1.45234
H         31.76930       86.80087       -1.99534
H         30.37144       86.32899       -4.01883
H         29.16007       87.55408       -3.47107
N         30.17102       90.50108       -2.74891
C         29.25157       91.55851       -3.10856
H         28.27122       91.36879       -2.62325
H         29.65028       92.52767       -2.74098
H         29.09785       91.63096       -4.20477
H         30.35284       90.36360       -1.75274
Ca        27.91986       83.32719       -0.55583
O         30.62083       82.18564       -0.02798
H         30.97297       82.71608        0.73001
H         31.42076       81.77862       -0.44513

Ca 1.0



