%chk=holoCaM.loop3.water2.frame238.chk
%nprocshared=20
%mem=10GB
%nosave
#b3lyp/svp scf=(tight,noincore,xqc) Test 
#IOP(5/87=12) Density=Current Pop=(MK,readradii) iop(6/33=2) iop(6/42=6)

holoCaM.loop3.water2.frame238 

   0  1 
C         41.80515       83.26723       40.00447
C         40.72025       83.93148       40.79412
O         39.58916       83.94826       40.32836
H         42.77710       83.30836       40.53822
H         41.53708       82.20596       39.82330
H         41.91477       83.78800       39.02924
N         40.99817       84.54089       41.98290
C         39.99384       85.25513       42.75295
C         40.29210       86.73079       42.66105
O         41.34167       87.16402       43.11948
C         39.99835       84.78872       44.21447
C         38.86202       85.37189       44.99921
O         37.91150       86.12332       44.40807
O         38.73183       85.05891       46.16684
H         41.97135       84.55142       42.32541
H         38.98414       85.05240       42.32806
H         40.96494       85.04622       44.69790
H         39.88256       83.68402       44.24966
N         39.43051       87.55592       42.00944
C         39.73210       88.95729       41.75475
C         39.60853       89.83915       42.98759
O         40.09533       90.95780       42.92783
C         38.88433       89.46907       40.56735
C         39.25483       88.74609       39.24855
C         40.62699       89.20278       38.71770
C         41.06332       88.42297       37.47519
N         42.34565       88.93069       36.98365
H         38.59346       87.13583       41.57811
H         40.80046       89.02058       41.47674
H         39.01351       90.56185       40.41746
H         37.81419       89.28603       40.80519
H         38.49348       88.98761       38.47576
H         39.24287       87.64466       39.39637
H         41.42268       89.05694       39.47129
H         40.56526       90.28676       38.47790
H         40.29758       88.51415       36.67471
H         41.17223       87.34713       37.74190
H         43.07455       88.86502       37.73191
H         42.65343       88.36154       36.16321
H         42.24251       89.92842       36.68625
N         39.01670       89.41031       44.14148
C         39.05706       90.17554       45.38935
C         39.72299       89.38327       46.51679
O         39.85208       89.92931       47.60606
C         37.65449       90.69401       45.78140
C         36.60767       89.65659       46.08006
O         35.38082       90.05682       46.46387
O         36.84452       88.46574       45.98402
H         38.54227       88.50168       44.14574
H         39.67708       91.08802       45.25287
H         37.27476       91.33803       44.95907
H         37.76304       91.33362       46.68492
N         40.21183       88.11962       46.33399
C         40.93312       87.38010       47.35730
C         40.11007       86.96645       48.56403
O         40.71079       86.44132       49.49094
H         40.15159       87.67443       45.41158
H         41.78665       88.00671       47.69637
H         41.35579       86.45267       46.91274
N         38.76002       87.16287       48.65671
C         38.01864       86.86707       49.88523
C         37.95535       85.37606       50.24107
O         37.45827       85.06376       51.31419
C         36.59938       87.48620       49.84377
C         35.61237       86.72896       48.98970
N         34.46409       86.25242       49.52674
O         35.84171       86.55136       47.80729
H         38.26490       87.60662       47.87395
H         38.55488       87.40380       50.69907
H         36.67041       88.53601       49.48243
H         36.20589       87.52445       50.88150
H         34.24462       86.39591       50.52347
H         33.78511       85.73930       48.94554
N         38.40476       84.40547       49.39045
C         38.36138       82.97684       49.66859
C         37.46129       82.21499       48.70659
O         37.43405       80.99599       48.79243
H         38.80206       84.67300       48.48643
H         37.99871       82.77035       50.69903
H         39.39696       82.58322       49.59001
N         36.63715       82.85849       47.82716
C         35.63186       82.18486       46.99631
C         35.66356       82.67374       45.51846
O         36.65667       83.62268       45.36656
C         34.26497       82.51945       47.60937
C         34.16928       81.89790       48.98288
C         34.39269       82.66217       50.14010
C         33.89765       80.52647       49.10939
C         34.34646       82.06354       51.40209
C         33.83616       79.93202       50.37225
C         34.06378       80.69915       51.52390
O         34.01767       80.13655       52.74806
H         36.62392       83.88843       47.82527
H         35.75459       81.07890       47.01982
H         33.41984       82.15860       46.98406
H         34.18422       83.62639       47.67426
H         34.62994       83.71212       50.06744
H         33.72853       79.92038       48.22790
H         34.53608       82.66033       52.28555
H         33.61745       78.87498       50.45301
H         33.82304       79.19695       52.87460
N         35.96291       81.58723       44.57829
C         35.92537       82.01334       43.15643
C         34.51617       81.88069       42.59453
O         33.95713       80.79477       42.66026
C         36.92219       81.15008       42.32331
C         38.36515       81.30008       42.87494
C         36.88373       81.55892       40.82983
C         39.34821       80.28397       42.28706
H         35.36651       80.74418       44.74477
H         36.27429       83.06597       43.04463
H         36.61381       80.08574       42.41726
H         38.36967       81.13031       43.97184
H         38.73393       82.33093       42.68516
H         37.17387       82.62580       40.70927
H         37.56115       80.93729       40.21318
H         35.86988       81.42429       40.40275
H         39.00461       79.25293       42.51927
H         39.46227       80.39272       41.19098
H         40.34882       80.43060       42.74550
N         33.92705       82.92314       41.93770
C         32.65273       82.79846       41.23252
C         32.89734       82.83780       39.73470
O         34.00829       83.13170       39.32413
C         31.67416       83.89500       41.67848
O         32.16196       85.17205       41.35545
H         34.44657       83.80592       41.84547
H         32.19506       81.81091       41.45373
H         31.47755       83.81352       42.77227
H         30.69532       83.75923       41.17236
H         32.70308       85.48289       42.12755
N         31.92465       82.46269       38.85307
C         32.18508       82.37435       37.41641
C         32.35092       83.73535       36.76826
O         32.97815       83.80900       35.71953
C         31.08181       81.59751       36.69972
H         31.01586       82.14732       39.22432
H         33.12564       81.79278       37.28002
H         30.99345       80.58238       37.14222
H         30.10837       82.12264       36.79566
H         31.33234       81.48566       35.62248
N         31.80039       84.85575       37.31616
C         32.00044       86.18915       36.76006
C         33.47501       86.52100       36.79255
O         34.03708       86.90460       35.77715
C         31.21588       87.22759       37.57263
H         31.23620       84.76284       38.17505
H         31.61955       86.23221       35.71475
H         31.36748       88.24197       37.14471
H         30.13057       86.99306       37.53294
H         31.53821       87.23546       38.63592
N         34.16846       86.33156       37.94739
C         35.59906       86.56487       38.09146
C         36.37307       85.71842       37.09511
O         37.15296       86.27100       36.33144
C         36.04625       86.26688       39.54059
C         35.33779       87.19939       40.54556
C         35.79810       86.95648       41.94571
O         36.32413       87.96224       42.66887
O         35.67136       85.85370       42.44650
H         33.64404       85.96352       38.75408
H         35.82123       87.63738       37.89337
H         37.14239       86.42778       39.61783
H         35.83388       85.20438       39.79650
H         34.24124       87.04024       40.53120
H         35.53603       88.25842       40.27598
N         36.17392       84.37484       37.01219
C         36.85423       83.54744       36.04012
H         37.94927       83.57249       36.21855
H         36.50034       82.49714       36.12324
H         36.63411       83.90962       35.01268
H         35.49319       83.92517       37.63424
Ca        35.85847       85.72452       45.19907
O         32.97941       85.07529       45.54789
H         32.19091       84.87667       44.98426
H         32.63163       85.06514       46.47462
O         33.63950       88.31478       44.46133
H         34.04655       89.11915       44.05149
H         32.71623       88.59243       44.68671

Ca 1.0



