%chk=holoCaM-CaMKII.loop1.water2.frame307.chk
%nprocshared=20
%mem=10GB
%nosave
#b3lyp/svp scf=(tight,noincore,xqc) Test 
#IOP(5/87=12) Density=Current Pop=(MK,readradii) iop(6/33=2) iop(6/42=6)

holoCaM-CaMKII.loop1.water2.frame307 

   0  1 
C         55.00329       21.27430       55.13292
C         56.39159       20.87340       55.51532
O         56.72048       19.69967       55.43781
H         54.32543       21.10079       55.99206
H         54.97553       22.35078       54.85691
H         54.66726       20.68954       54.25160
N         57.27641       21.81891       55.92039
C         58.66017       21.52143       56.23763
C         58.74852       20.63134       57.48803
O         58.24375       21.04693       58.52170
C         59.41937       22.86598       56.41119
C         60.88922       22.67214       56.32848
O         61.33434       21.44565       56.03795
O         61.65228       23.61854       56.40808
H         56.95693       22.79955       55.96171
H         59.08701       21.00101       55.34910
H         59.12121       23.37307       57.35293
H         59.17505       23.53869       55.56078
N         59.35937       19.39987       57.46928
C         59.33232       18.46632       58.60569
C         60.65479       18.35403       59.35689
O         60.61611       17.88017       60.48512
C         58.93861       17.04063       58.15969
C         57.64715       16.91075       57.34612
C         56.39193       17.34007       58.11111
C         55.13685       17.02121       57.28514
N         53.92936       17.50488       57.95106
H         59.81964       19.09811       56.60619
H         58.59503       18.83759       59.35083
H         58.86203       16.38301       59.05512
H         59.75934       16.64329       57.52135
H         57.54757       15.83779       57.07038
H         57.73588       17.49464       56.40627
H         56.44220       18.42993       58.31867
H         56.33108       16.79009       59.07648
H         55.06546       15.91834       57.14492
H         55.20988       17.49441       56.28116
H         53.95022       18.54942       58.00116
H         53.09326       17.21044       57.39626
H         53.85710       17.10415       58.91423
N         61.84551       18.77321       58.83714
C         63.07228       18.84220       59.63421
C         63.41069       20.30230       59.93514
O         64.37305       20.54406       60.64952
C         64.23353       17.96263       59.07611
C         64.74550       18.23900       57.69673
O         64.17165       19.15617       56.92943
O         65.66587       17.57989       57.24262
H         61.86539       19.14651       57.88047
H         62.89495       18.41158       60.64325
H         63.89931       16.90208       59.08404
H         65.09920       18.05103       59.76731
N         62.57917       21.31893       59.54071
C         62.67171       22.68198       60.03406
C         63.96240       23.35491       59.67007
O         64.67860       23.80102       60.55427
H         61.76568       21.12846       58.93973
H         62.53485       22.67652       61.13642
H         61.83767       23.27590       59.59535
N         64.30319       23.47912       58.36477
C         65.50811       24.14431       57.88582
C         65.16364       25.32497       56.96762
O         66.07127       25.86882       56.35425
C         66.42491       23.09474       57.20645
C         65.84836       22.43032       55.99407
O         66.53690       21.46384       55.36016
O         64.75966       22.75633       55.57264
H         63.66526       23.06631       57.67326
H         66.10241       24.55115       58.73314
H         66.65073       22.30012       57.95060
H         67.38155       23.57171       56.90792
N         63.88671       25.81322       56.86388
C         63.52149       26.95357       56.02903
C         63.25138       26.59846       54.57091
O         62.93224       27.49886       53.80863
H         63.14707       25.42885       57.46772
H         64.29453       27.74804       56.11960
H         62.57297       27.38177       56.41911
N         63.35292       25.31992       54.11229
C         63.09871       24.89015       52.73528
C         62.23049       23.62580       52.70647
O         62.21516       22.87408       53.66768
C         64.45024       24.65990       51.99281
C         65.01091       25.97317       51.45233
O         65.42985       24.10315       52.83190
H         63.65019       24.60308       54.77377
H         62.52338       25.66653       52.18343
H         64.30192       24.00901       51.10306
H         65.01430       23.36021       53.32343
H         64.32470       26.38431       50.68132
H         65.14720       26.71767       52.26301
H         65.99512       25.78459       50.97109
N         61.45880       23.35029       51.61236
C         60.53712       22.21362       51.50102
C         60.97618       21.33521       50.33994
O         61.13549       21.83411       49.23429
C         59.08208       22.74273       51.31895
C         58.64476       23.50591       52.59647
C         58.09461       21.58995       51.02061
C         57.41304       24.38635       52.38616
H         61.49526       24.00650       50.81669
H         60.54410       21.59586       52.42615
H         59.07588       23.44568       50.45646
H         59.44818       24.19794       52.92232
H         58.46417       22.77969       53.41869
H         58.33953       21.10704       50.05175
H         58.13723       20.81783       51.81945
H         57.05047       21.95118       50.93660
H         57.17649       24.91568       53.33370
H         57.63435       25.15026       51.60940
H         56.52235       23.80346       52.08278
N         61.16296       19.99615       50.52826
C         61.64898       19.09006       49.49359
C         60.49853       18.39841       48.79217
O         59.34933       18.63862       49.11471
C         62.59449       18.01145       50.10185
C         63.68444       18.60988       50.97043
O         61.86176       17.10325       50.87563
H         60.94189       19.59513       51.44575
H         62.22489       19.66783       48.73807
H         63.07859       17.46699       49.26094
H         62.42208       16.29175       50.99660
H         63.22554       19.04105       51.88429
H         64.38517       17.80670       51.28037
H         64.23991       19.38809       50.41353
N         60.75727       17.49706       47.81319
C         59.74107       16.66911       47.17687
C         59.12262       15.69911       48.18860
O         57.90437       15.60690       48.24019
C         60.35237       15.94074       45.95225
C         60.75946       16.97733       44.88163
O         61.46365       15.17296       46.34179
H         61.73823       17.37473       47.52475
H         58.92509       17.30837       46.76992
H         59.57663       15.27442       45.51236
H         61.79992       14.71285       45.52858
H         59.87262       17.56964       44.56733
H         61.52806       17.68317       45.26192
H         61.17067       16.47307       43.98337
N         59.89731       14.95907       49.03642
C         59.34806       14.00916       50.01253
C         58.45492       14.70263       51.03239
O         57.32543       14.27732       51.22878
C         60.46646       13.23182       50.75015
C         61.33401       12.42730       49.76694
C         62.27070       11.44918       50.48653
C         63.24457       10.73723       49.52649
N         62.57203       10.14112       48.36891
H         60.91860       15.08583       48.98685
H         58.74378       13.24415       49.47575
H         59.97389       12.51922       51.45065
H         61.11247       13.91166       51.34938
H         61.93091       13.11858       49.13860
H         60.66229       11.83160       49.11128
H         61.64484       10.69094       51.00707
H         62.87812       11.98102       51.25129
H         63.77421        9.94567       50.10212
H         64.00762       11.45981       49.16152
H         63.24427        9.52062       47.86331
H         61.74133        9.58035       48.66523
H         62.27655       10.89522       47.70591
N         58.90878       15.79348       51.70544
C         58.14562       16.54166       52.70382
C         56.82983       17.00023       52.10290
O         55.77966       16.64120       52.61687
C         58.98111       17.74012       53.22581
C         60.26375       17.25451       53.93345
C         61.11812       18.35901       54.46760
O         61.33171       19.36450       53.81296
O         61.81966       18.14335       55.59327
H         59.84425       16.11893       51.45764
H         57.92247       15.88265       53.57254
H         58.38025       18.33610       53.94317
H         59.24923       18.40016       52.37375
H         60.90600       16.67048       53.25019
H         59.99313       16.58516       54.77749
N         56.81686       17.74949       50.97190
C         55.60218       18.11303       50.27908
H         54.94363       18.71192       50.93989
H         55.85147       18.71059       49.37525
H         55.07252       17.19291       49.94939
H         57.70808       18.03907       50.56788
Ca        63.30561       20.63565       55.59500
O         64.52590       18.18259       54.00908
H         65.19797       18.28460       54.72588
H         64.71924       17.29561       53.61606
O         64.61160       21.07680       52.53865
H         64.84353       21.70660       51.81223
H         65.27433       20.34970       52.44122

Ca 1.0



