%chk=holoCaM.loop2.water2.frame194.chk
%nprocshared=20
%mem=10GB
%nosave
#b3lyp/svp scf=(tight,noincore,xqc) Test 
#IOP(5/87=12) Density=Current Pop=(MK,readradii) iop(6/33=2) iop(6/42=6)

holoCaM.loop2.water2.frame194 

   -2  1 
C         17.78719       52.84273       94.28066
C         18.03338       51.71409       95.22983
O         17.50556       51.76247       96.33253
H         17.10609       53.59131       94.74461
H         18.74423       53.33893       94.02589
H         17.30233       52.45247       93.36223
N         18.82720       50.65524       94.87884
C         19.02071       49.52631       95.78011
C         20.05514       48.51731       95.28568
O         19.91616       48.02207       94.17568
C         17.68237       48.78248       96.00009
C         17.87576       47.82764       97.12196
O         17.70028       46.63391       96.95784
O         18.33685       48.33451       98.28616
H         19.29693       50.66416       93.96082
H         19.37477       49.94234       96.74618
H         17.35254       48.27052       95.06826
H         16.87344       49.46740       96.31038
N         21.07629       48.11132       96.10669
C         22.06164       47.09848       95.73399
C         22.08835       45.86935       96.65994
O         22.81769       44.94665       96.32261
C         23.45036       47.75000       95.71086
H         21.16199       48.54103       97.03645
H         21.84560       46.72306       94.71068
H         23.72007       48.12533       96.72260
H         24.22461       47.02369       95.38302
H         23.45781       48.60675       95.00360
N         21.39541       45.78121       97.84257
C         21.53287       44.63424       98.76220
C         20.20367       44.05081       99.29083
O         20.25902       43.03995       99.97758
C         22.50587       45.00701       99.90664
C         22.07851       46.24090      100.64075
O         20.87878       46.27118      101.22989
O         22.76615       47.24895      100.61192
H         20.85413       46.59570       98.15549
H         22.01785       43.78698       98.23007
H         23.50680       45.19585       99.45958
H         22.60847       44.15857      100.61703
N         18.98448       44.58060       98.98508
C         17.70148       43.96542       99.33763
C         17.31789       43.96037      100.81384
O         16.29245       43.37452      101.13137
H         18.96086       45.40860       98.39371
H         17.70620       42.91914       98.96349
H         16.88693       44.50090       98.80371
N         18.06375       44.57800      101.76905
C         17.76891       44.52043      103.20489
C         16.43728       45.15038      103.63485
O         16.07750       44.97685      104.79131
C         18.95111       45.12186      104.00856
C         19.26872       46.57038      103.70717
N         20.32875       47.16206      104.29934
O         18.59962       47.20790      102.91073
H         18.91390       45.05403      101.46591
H         17.70925       43.44434      103.47969
H         19.85962       44.53011      103.76306
H         18.76037       45.01693      105.09800
H         20.92626       46.64202      104.95709
H         20.56114       48.14002      104.08444
N         15.66525       45.89851      102.79632
C         14.37138       46.46376      103.16915
C         14.41087       47.96871      103.36206
O         13.35459       48.55820      103.53671
H         16.00569       46.09320      101.85035
H         13.98719       46.02922      104.11740
H         13.64333       46.20259      102.37110
N         15.59261       48.64405      103.42558
C         15.71814       50.07162      103.70024
C         16.54157       50.75780      102.62106
O         17.04347       50.10407      101.71876
C         16.39710       50.26253      105.08915
C         15.46645       49.83748      106.22581
O         17.58844       49.52025      105.17593
H         16.46460       48.11624      103.33812
H         14.72355       50.56906      103.71819
H         16.61592       51.33547      105.28576
H         18.26404       49.98027      104.61377
H         15.97012       50.00003      107.20310
H         14.54299       50.45622      106.20778
H         15.18898       48.76668      106.14125
N         16.75689       52.10097      102.70690
C         17.63481       52.85635      101.82590
C         18.86938       53.20992      102.62902
O         18.75980       53.78448      103.70303
C         16.89536       54.09973      101.24128
C         15.85226       53.61186      100.20073
C         17.88848       55.09214      100.59875
C         15.02531       54.71864       99.54544
H         16.33485       52.61645      103.49371
H         17.97442       52.23807      100.96675
H         16.38512       54.64301      102.06804
H         15.14639       52.91098      100.69590
H         16.37914       53.06526       99.38785
H         18.44047       54.61849       99.76160
H         17.36781       55.99885      100.23185
H         18.61675       55.45919      101.35167
H         14.30295       54.25914       98.83741
H         14.46437       55.29178      100.31137
H         15.66352       55.40581       98.95334
N         20.09519       52.89078      102.12958
C         21.34954       53.14510      102.82019
C         21.95860       54.43247      102.31219
O         21.39191       55.05521      101.43429
C         22.30706       51.96374      102.55985
C         21.72831       50.66669      103.03437
O         21.50809       49.76443      102.24152
O         21.45978       50.49221      104.34146
H         20.15178       52.49425      101.18196
H         21.17408       53.26309      103.91190
H         23.27127       52.11344      103.08383
H         22.50931       51.89831      101.46543
N         23.10812       54.91624      102.85582
C         23.74801       56.13962      102.38608
C         24.26516       56.01685      100.94797
O         23.92792       56.89632      100.16370
C         24.84258       56.58995      103.37157
C         25.40435       57.95116      103.01983
C         24.55849       59.07346      102.89725
C         26.78486       58.11589      102.82448
C         25.08479       60.32501      102.57012
C         27.30810       59.37436      102.50994
C         26.45883       60.47631      102.37844
H         23.52440       54.40959      103.65132
H         22.97513       56.93673      102.41367
H         25.64492       55.82496      103.42844
H         24.38350       56.67197      104.38123
H         23.49040       58.98990      103.04812
H         27.45739       57.27349      102.92354
H         24.42573       61.17817      102.46837
H         28.37356       59.49549      102.36823
H         26.86479       61.44837      102.13108
N         25.02603       54.96842      100.48033
C         25.47718       54.83301       99.09258
C         24.35054       54.61122       98.07986
O         24.65958       54.43250       96.91106
C         26.43363       53.63135       99.14016
C         25.82749       52.78768      100.23478
C         25.48469       53.84423      101.27709
H         26.05234       55.72557       98.76169
H         26.60683       53.11218       98.17240
H         27.41852       53.97856       99.52633
H         24.87734       52.35569       99.84467
H         26.46194       51.95834      100.61323
H         24.72537       53.40194      101.93312
H         26.37678       54.15999      101.86017
N         23.03591       54.64829       98.43480
C         21.92558       54.47658       97.51047
C         21.19843       55.80604       97.37566
O         21.06754       56.29589       96.26239
C         21.00516       53.35652       98.03665
C         21.78568       52.04004       98.22244
C         20.96189       50.94136       98.82873
O         19.65881       51.12086       99.11177
O         21.48914       49.87329       99.09178
H         22.78106       54.80431       99.41042
H         22.28396       54.17872       96.49955
H         20.16023       53.20060       97.33000
H         20.59006       53.66191       99.02086
H         22.63518       52.21499       98.91395
H         22.18883       51.70022       97.24373
N         20.75449       56.47560       98.47729
C         20.13556       57.78394       98.44618
H         19.14027       57.73215       98.93400
H         20.77044       58.49687       99.01667
H         20.01369       58.17245       97.41475
H         20.89071       56.06304       99.40260
Ca        19.34314       47.42500      100.07443
O         16.28343       50.22564       98.81328
H         15.83764       50.75313       99.51929
H         17.19158       50.61233       98.75301
O         16.39280       47.60397      100.03129
H         16.36509       46.81880       99.42945
H         15.44383       47.82634      100.19660

Ca 1.0



