%chk=holoCaM-CaMKII.loop2.water2.frame141.chk
%nprocshared=20
%mem=10GB
%nosave
#b3lyp/svp scf=(tight,noincore,xqc) Test 
#IOP(5/87=12) Density=Current Pop=(MK,readradii) iop(6/33=2) iop(6/42=6)

holoCaM-CaMKII.loop2.water2.frame141 

   -2  1 
C         14.07010       29.97730       58.84667
C         12.60285       30.02847       58.58645
O         11.96366       28.99718       58.43044
H         14.59729       30.70186       58.19184
H         14.22823       30.28357       59.90360
H         14.47291       28.95750       58.69476
N         11.99887       31.23838       58.55726
C         10.56364       31.40617       58.54897
C         10.04142       31.60077       57.14017
O         10.58512       32.39410       56.38474
C         10.22214       32.58826       59.45180
C          8.76350       32.75464       59.65659
O          8.29581       33.98110       59.94806
O          7.99847       31.80955       59.54084
H         12.59122       32.07825       58.65929
H         10.08604       30.51212       59.01158
H         10.60383       33.52144       58.99306
H         10.69925       32.44961       60.44795
N          8.93455       30.91391       56.75412
C          8.35200       30.92773       55.42496
C          7.01804       31.68111       55.38132
O          6.44521       31.75224       54.30322
C          8.13980       29.44523       55.01592
H          8.47346       30.33652       57.45814
H          9.05083       31.42059       54.71640
H          9.07686       28.86747       55.17671
H          7.35435       28.98196       55.65369
H          7.81390       29.29160       53.96563
N          6.43154       32.22077       56.49884
C          5.02276       32.64230       56.50426
C          4.67624       33.86113       57.38017
O          3.55403       34.33909       57.27195
C          4.16869       31.41332       56.90024
C          4.57000       30.78163       58.21231
O          5.21522       31.49194       59.14464
O          4.42312       29.58367       58.38748
H          6.91155       32.09975       57.39527
H          4.72241       32.92448       55.47362
H          4.31374       30.64687       56.10557
H          3.08800       31.66141       56.93137
N          5.55741       34.40583       58.26963
C          5.26477       35.52760       59.17035
C          4.26600       35.22813       60.29491
O          3.89409       36.14937       61.01056
H          6.49854       34.01259       58.31043
H          4.92193       36.40218       58.57663
H          6.21161       35.81187       59.67429
N          3.80717       33.96171       60.50873
C          2.81013       33.54314       61.48918
C          3.30577       33.53140       62.94670
O          2.52667       33.18258       63.82563
C          2.21518       32.16289       61.09274
C          2.96294       30.92812       61.51721
N          2.32317       29.73794       61.50728
O          4.12147       30.98922       61.88659
H          4.13295       33.25604       59.87205
H          1.95704       34.25042       61.38571
H          2.04925       32.09011       59.99578
H          1.21802       32.11459       61.57071
H          1.33626       29.67794       61.21473
H          2.80171       28.88575       61.82291
N          4.58101       33.91163       63.26878
C          5.06600       34.13220       64.62927
C          5.57042       32.90071       65.36893
O          5.86245       33.01202       66.55103
H          5.19550       34.22693       62.51421
H          4.25127       34.59911       65.21797
H          5.88841       34.87770       64.58387
N          5.68092       31.69963       64.74785
C          5.88825       30.41475       65.40660
C          6.54337       29.42551       64.46521
O          6.36646       29.49842       63.26408
C          4.52040       29.80074       65.83586
C          3.98398       30.42238       67.11433
O          3.51327       29.93586       64.86453
H          5.45577       31.67173       63.76053
H          6.56435       30.50905       66.28501
H          4.66880       28.71452       66.02922
H          3.92973       30.04310       63.98498
H          2.96502       30.01945       67.29596
H          4.65234       30.16896       67.96414
H          3.88035       31.51891       67.02897
N          7.24989       28.39480       64.98319
C          7.87895       27.36564       64.17100
C          6.86633       26.28491       63.81818
O          6.13759       25.80287       64.67457
C          9.22721       26.93526       64.83389
C         10.32530       28.00489       64.56307
C          9.76191       25.55641       64.42894
C         10.98373       27.96081       63.16488
H          7.31301       28.32354       66.01110
H          8.18041       27.80046       63.20051
H          9.06508       26.88374       65.93477
H         11.15016       27.82530       65.27841
H          9.91337       29.02015       64.75508
H          9.16095       24.75251       64.90028
H          9.76944       25.43269       63.32829
H         10.80930       25.45322       64.79345
H         11.49179       26.99816       62.96408
H         10.28241       28.06592       62.33427
H         11.74365       28.76845       63.10272
N          6.80447       25.86232       62.52109
C          5.93795       24.80217       62.01099
C          6.80953       23.59353       61.70572
O          7.97747       23.81851       61.52002
C          5.22423       25.28689       60.72403
C          4.57413       26.63002       60.87995
O          3.36181       26.72776       60.90141
O          5.32446       27.74112       60.80360
H          7.47300       26.27412       61.85544
H          5.17457       24.51800       62.75986
H          4.45723       24.53733       60.44854
H          5.92918       25.38279       59.86177
N          6.34986       22.30697       61.61509
C          7.18836       21.14220       61.25153
C          8.14903       21.38331       60.06690
O          9.31540       21.04413       60.22204
C          6.32548       19.89356       60.92890
C          7.15982       18.63379       60.91180
C          7.72121       18.15254       59.71659
C          7.38343       17.93117       62.10665
C          8.50962       16.99688       59.72232
C          8.15812       16.76894       62.10735
C          8.72361       16.30185       60.91810
H          5.36518       22.13819       61.86247
H          7.79415       20.87894       62.15282
H          5.80946       19.99353       59.95346
H          5.52310       19.76142       61.68178
H          7.55109       18.67442       58.78415
H          6.94873       18.27995       63.03528
H          8.94823       16.64266       58.79739
H          8.31772       16.23058       63.03179
H          9.32028       15.39847       60.92861
N          7.76802       21.93312       58.85967
C          8.67409       22.10722       57.71462
C          9.79758       23.13444       57.91880
O         10.68630       23.22919       57.08538
C          7.75436       22.57431       56.58044
C          6.59893       23.23805       57.30277
C          6.42698       22.38328       58.54692
H          9.12182       21.11864       57.45658
H          8.25121       23.21778       55.82200
H          7.31601       21.69380       56.07297
H          6.91850       24.25924       57.61587
H          5.66941       23.30640       56.69989
H          5.97670       23.02383       59.31820
H          5.77689       21.50889       58.35631
N          9.79150       23.93906       59.00136
C         10.76409       24.96130       59.37960
C         11.56961       24.48315       60.57873
O         12.73229       24.84249       60.70915
C          9.99242       26.23429       59.77941
C          9.20787       26.83325       58.60697
C          8.31301       27.96630       59.00834
O          7.51222       28.41172       58.20840
O          8.29914       28.44626       60.25005
H          8.99118       23.82872       59.59971
H         11.48042       25.16056       58.55375
H         10.69344       26.99347       60.17593
H          9.27829       25.95596       60.58645
H          8.54125       26.05915       58.17774
H          9.91928       27.16825       57.82815
N         11.02959       23.56971       61.42720
C         11.71623       22.87999       62.47654
H         12.65730       23.37947       62.76530
H         11.03150       22.78985       63.34786
H         11.91694       21.85507       62.09762
H         10.09181       23.23301       61.26894
Ca         6.48231       29.64186       60.68747
O          6.72483       32.27912       62.03223
H          6.81040       32.91031       61.29128
H          7.60914       32.23729       62.46348
O          9.06340       30.45719       62.32781
H          9.93307       30.91461       62.31207
H          9.24242       29.69398       61.75699

Ca 1.0



