%chk=holoCaM.loop3.water3.frame401.chk
%nprocshared=20
%mem=10GB
%nosave
#b3lyp/svp scf=(tight,noincore,xqc) Test 
#IOP(5/87=12) Density=Current Pop=(MK,readradii) iop(6/33=2) iop(6/42=6)

holoCaM.loop3.water3.frame401 

   0  1 
C         73.91194       69.89837       96.56359
C         74.16264       69.89381       98.03903
O         74.60053       68.87292       98.55114
H         73.54146       70.88592       96.21899
H         74.85959       69.66805       96.03294
H         73.15642       69.12385       96.31573
N         73.89006       70.99588       98.79556
C         74.13269       71.04539      100.22737
C         72.79126       71.06186      100.94311
O         72.03050       72.00824      100.79693
C         75.04024       72.24905      100.54589
C         75.51092       72.28494      101.96551
O         76.29129       73.15191      102.31648
O         75.11425       71.35390      102.84720
H         73.47744       71.82691       98.34406
H         74.68430       70.13292      100.53895
H         74.51998       73.20054      100.30210
H         75.94903       72.17889       99.91105
N         72.41030       69.96793      101.66399
C         71.08056       69.78060      102.24675
C         70.76507       70.72123      103.39548
O         69.60777       70.76928      103.78967
C         70.93162       68.30815      102.71140
C         70.89276       67.33464      101.51330
C         69.50511       67.35450      100.84183
C         69.42233       66.50938       99.56448
N         70.14830       67.13120       98.45421
H         73.07384       69.18295      101.71326
H         70.33358       70.00299      101.45872
H         70.01558       68.14879      103.32053
H         71.80198       68.07465      103.36488
H         71.06666       66.29771      101.87428
H         71.71008       67.57867      100.80424
H         69.17629       68.38054      100.58560
H         68.78219       66.94685      101.58257
H         68.34946       66.43925       99.27801
H         69.79654       65.47860       99.75010
H         71.17315       67.17230       98.64785
H         69.99284       66.56695       97.58823
H         69.78219       68.09755       98.28619
N         71.71808       71.48899      103.98652
C         71.43186       72.47214      105.02430
C         71.91738       73.83800      104.56725
O         71.10571       74.74724      104.45989
C         71.95531       72.02826      106.41962
C         73.37646       71.52088      106.58375
O         73.74887       71.19756      107.69789
O         74.19620       71.33906      105.52826
H         72.68906       71.38384      103.67488
H         70.33165       72.57603      105.17200
H         71.30576       71.18834      106.75320
H         71.78288       72.87178      107.12428
N         73.22054       74.04254      104.24147
C         73.75945       75.29007      103.73761
C         74.83662       75.80392      104.66001
O         74.75171       76.94507      105.08995
H         73.87398       73.26163      104.31353
H         72.97127       76.06388      103.60762
H         74.20267       75.09440      102.73733
N         75.88730       75.00565      105.00638
C         76.99932       75.43783      105.84398
C         78.32996       75.27942      105.10375
O         79.36880       75.32321      105.74936
C         77.00903       74.67797      107.20039
C         77.33769       73.21057      107.13534
N         77.59041       72.51291      108.26475
O         77.42038       72.65018      106.06379
H         75.91052       74.04043      104.65183
H         76.89227       76.50869      106.12037
H         76.03832       74.81105      107.72574
H         77.79743       75.14798      107.82557
H         77.55389       72.96814      109.18680
H         77.86865       71.52160      108.21055
N         78.38478       75.12558      103.74514
C         79.63514       74.94512      103.02391
C         80.19544       73.53692      103.12465
O         81.29405       73.32760      102.63069
H         77.52455       75.20132      103.18550
H         80.37427       75.69347      103.38505
H         79.46879       75.13742      101.94236
N         79.49770       72.51536      103.70483
C         79.99092       71.14818      103.80563
C         79.06546       70.17648      103.04101
O         77.68434       70.16018      103.32918
C         80.20442       70.75310      105.28023
C         81.35620       71.52530      105.89161
C         81.15000       72.42828      106.94684
C         82.66529       71.33019      105.40959
C         82.22865       73.12757      107.50207
C         83.74110       72.02529      105.96807
C         83.52600       72.92856      107.01689
O         84.55514       73.60573      107.56604
H         78.56334       72.70129      104.07497
H         80.97281       71.05684      103.29573
H         80.46686       69.67643      105.35486
H         79.26060       70.90825      105.84133
H         80.15849       72.59698      107.33857
H         82.85779       70.63167      104.60493
H         82.05661       73.82421      108.31276
H         84.74097       71.85865      105.58599
H         85.46744       73.49195      107.26212
N         79.63354       68.83045      102.92153
C         78.84183       67.84406      102.15681
C         79.43203       66.48815      102.50491
O         80.54784       66.18718      102.10240
C         78.80453       68.11305      100.59935
C         77.90312       69.33910      100.25759
C         78.29874       66.87577       99.82203
C         77.79872       69.67733       98.76851
H         80.59430       68.89517      102.51002
H         77.79828       67.84142      102.53407
H         79.84399       68.29850      100.25069
H         78.29494       70.25396      100.73063
H         76.87681       69.15333      100.64344
H         78.91636       65.97938      100.02983
H         77.24422       66.65984      100.06494
H         78.38136       67.02908       98.72803
H         78.80318       69.89323       98.35109
H         77.31646       68.86404       98.19152
H         77.16134       70.57692       98.64167
N         78.73816       65.64055      103.31469
C         79.23139       64.33529      103.73658
C         78.98248       63.29559      102.65979
O         78.45285       63.63940      101.61406
C         78.53074       63.93613      105.05185
O         77.14554       63.82679      104.85973
H         77.83712       65.96594      103.69460
H         80.31895       64.39758      103.96422
H         78.75470       64.72664      105.80611
H         78.92584       62.97248      105.43562
H         76.72789       63.92854      105.75413
N         79.30001       61.98841      102.85889
C         78.95124       60.92296      101.92291
C         77.44139       60.84611      101.73171
O         76.98936       60.77015      100.60056
C         79.47010       59.57643      102.43722
H         79.77467       61.73058      103.73950
H         79.44193       61.10386      100.93930
H         80.57554       59.61734      102.54460
H         79.02272       59.32617      103.42269
H         79.22329       58.76984      101.71350
N         76.60588       60.90686      102.81129
C         75.14529       60.86082      102.72077
C         74.60679       61.91346      101.77053
O         73.88007       61.57161      100.84643
C         74.53142       61.08076      104.11282
H         77.03324       61.01969      103.74266
H         74.83298       59.85649      102.36038
H         73.42285       61.03228      104.05829
H         74.88503       60.29981      104.81785
H         74.81925       62.07455      104.52097
N         74.94507       63.21769      101.93483
C         74.49038       64.30432      101.07121
C         74.86279       64.03763       99.61926
O         73.99768       64.13948       98.76088
C         75.08401       65.63890      101.56937
C         74.49581       66.03368      102.93690
C         75.13132       67.27802      103.47826
O         75.73778       67.24882      104.67827
O         75.09189       68.32169      102.84993
H         75.59132       63.43909      102.70752
H         73.38161       64.39793      101.12047
H         74.84374       66.45061      100.84641
H         76.18668       65.53630      101.65001
H         74.64675       65.22331      103.67969
H         73.40395       66.20044      102.82974
N         76.11507       63.63649       99.27627
C         76.49159       63.32459       97.91494
H         77.53882       62.95233       97.88982
H         75.83003       62.52944       97.50841
H         76.41866       64.23341       97.28288
H         76.81457       63.50516      100.00885
Ca        76.29022       70.44566      105.16204
O         76.04190       69.34143      108.13389
H         75.85483       69.14212      109.08446
H         75.97725       70.32550      108.07811
O         78.36412       68.27840      106.45896
H         79.26670       67.89841      106.59999
H         77.91275       67.61807      105.87857
O         73.28102       68.43874      105.99989
H         73.06945       67.49702      105.78135
H         73.34261       68.45700      106.98789

Ca 1.0



