%chk=holoCaM.loop4.water3.frame61.chk
%nprocshared=20
%mem=10GB
%nosave
#b3lyp/svp scf=(tight,noincore,xqc) Test 
#IOP(5/87=12) Density=Current Pop=(MK,readradii) iop(6/33=2) iop(6/42=6)

holoCaM.loop4.water3.frame61 

   -3  1 
C         82.66863        0.94898      126.44163
C         81.24245        1.41935      126.31183
O         80.97250        2.28781      125.49585
H         83.32959        1.79777      126.71350
H         82.77139        0.16606      127.22455
H         83.01103        0.51492      125.47836
N         80.26797        0.86107      127.08010
C         78.85164        1.21132      126.99660
C         78.57875        2.63972      127.46318
O         78.95929        2.97368      128.57692
C         78.04005        0.25314      127.89333
C         76.59028        0.63042      127.88886
O         75.83488        0.55407      126.76753
O         76.10823        1.08815      128.91228
H         80.54728        0.11460      127.73644
H         78.49979        1.06944      125.95390
H         78.42905        0.34013      128.93407
H         78.15533       -0.80082      127.57482
N         77.84371        3.50098      126.69049
C         77.43224        4.83389      127.14280
C         75.90437        5.06025      127.09673
O         75.48496        6.10345      127.57935
C         78.25108        5.91798      126.37076
C         78.10502        7.36241      126.92269
C         77.93546        5.92422      124.86591
C         78.46775        7.50056      128.40399
H         77.56507        3.19240      125.75302
H         77.71137        4.92603      128.20937
H         79.32450        5.64550      126.48702
H         77.07979        7.75443      126.76208
H         78.79832        8.01917      126.35243
H         78.12517        4.93341      124.41548
H         76.87662        6.20518      124.68391
H         78.59127        6.65183      124.34113
H         77.74986        6.95554      129.04989
H         79.49500        7.12154      128.58941
H         78.42397        8.57032      128.69688
N         75.00715        4.15991      126.57610
C         73.54953        4.39559      126.56872
C         72.75601        3.39084      127.40809
O         71.55971        3.58184      127.57187
C         73.00167        4.45128      125.12450
C         73.11790        3.17017      124.33689
O         73.66936        2.06269      124.86750
O         72.69232        3.13414      123.19375
H         75.36215        3.28472      126.16980
H         73.33242        5.38635      127.02282
H         73.53474        5.25415      124.57244
H         71.92352        4.72458      125.16409
N         73.35075        2.30822      127.97562
C         72.67594        1.34998      128.83475
C         71.52948        0.65086      128.14988
O         70.41811        0.72580      128.65553
H         74.34381        2.16355      127.81232
H         72.31301        1.87028      129.74743
H         73.40710        0.57542      129.15512
N         71.72634       -0.06353      127.00524
C         70.65151       -0.79566      126.33207
C         70.90918       -2.29792      126.24242
O         70.00113       -3.00363      125.82530
C         70.33246       -0.17799      124.94761
C         71.45887       -0.13120      123.94860
O         72.69685       -0.53905      124.26331
O         71.24995        0.31770      122.83345
H         72.67702       -0.07634      126.60946
H         69.71516       -0.70503      126.92405
H         69.98817        0.86686      125.10134
H         69.49387       -0.74970      124.49372
N         72.09886       -2.86756      126.59585
C         72.34815       -4.30061      126.51387
C         73.13501       -4.67384      125.27617
O         73.45173       -5.84478      125.12303
H         72.88853       -2.27450      126.87942
H         71.39777       -4.87520      126.47916
H         72.88919       -4.61782      127.43159
N         73.44527       -3.74536      124.32701
C         74.13946       -4.03727      123.08502
C         75.43948       -3.20146      123.03534
O         76.08579       -3.23004      124.27647
C         73.20960       -3.66449      121.90163
C         71.88879       -4.45673      121.91881
C         70.96721       -4.03065      120.80221
N         70.46841       -2.77193      120.75614
O         70.65081       -4.83688      119.94031
H         73.16039       -2.77589      124.46647
H         74.40390       -5.11628      123.03006
H         73.71396       -3.85352      120.93122
H         72.98125       -2.57872      121.96377
H         71.34958       -4.30277      122.87800
H         72.12368       -5.53903      121.81913
H         70.70508       -2.08181      121.48313
H         69.83035       -2.48812      119.99745
N         76.37942       -3.71388      122.03143
C         77.46047       -2.75283      121.74604
C         77.20360       -2.02113      120.43407
O         77.19059       -2.64013      119.37929
C         78.83826       -3.46975      121.82339
C         78.94734       -4.70035      120.90936
C         79.99448       -2.49667      121.54691
H         75.92263       -4.06303      121.15873
H         77.50366       -1.98582      122.55396
H         78.95374       -3.83755      122.86820
H         79.92944       -5.19672      121.06446
H         78.15836       -5.44051      121.16041
H         78.86321       -4.42758      119.83917
H         79.95625       -2.12862      120.50168
H         79.94524       -1.62834      122.23719
H         80.97036       -3.00444      121.69833
N         76.97599       -0.67857      120.44562
C         76.76458        0.12086      119.24048
C         78.05130        0.17008      118.42263
O         79.06701       -0.30957      118.89129
C         76.33540        1.54361      119.68269
C         75.96414        2.50101      118.58476
N         74.92821        2.23839      117.75729
O         76.58364        3.54653      118.46477
H         76.94367       -0.20597      121.35862
H         75.94546       -0.34524      118.65129
H         77.15799        1.97953      120.28072
H         75.44701        1.46086      120.33878
H         74.37941        1.37298      117.85878
H         74.66856        2.91015      117.02011
N         78.08343        0.72526      117.18022
C         79.32648        0.89562      116.42895
C         80.18127        1.98491      117.05934
O         81.34946        1.73341      117.32695
C         79.11509        1.14063      114.91594
C         78.28111        2.33080      114.51443
C         78.89861        3.51224      114.07259
C         76.87771        2.24990      114.51092
C         78.12427        4.59967      113.65798
C         76.10678        3.33591      114.09702
C         76.72428        4.51443      113.67124
O         75.96404        5.55160      113.26884
H         77.19779        1.03369      116.77578
H         79.89834       -0.06079      116.45066
H         78.67534        0.23586      114.44243
H         80.13067        1.24134      114.47011
H         79.97855        3.59318      114.05146
H         76.37188        1.34018      114.80541
H         78.61360        5.50566      113.32479
H         75.02724        3.25434      114.09792
H         76.35114        6.38203      112.95845
N         79.65567        3.21012      117.36738
C         80.42640        4.28373      118.00434
C         80.94554        3.91576      119.40495
O         81.68181        4.70366      119.97679
C         79.60962        5.59782      118.10537
C         79.10716        6.10399      116.74296
C         78.47387        7.46011      116.86905
O         78.92405        8.40639      116.24251
O         77.40262        7.63928      117.66535
H         78.66889        3.37482      117.12989
H         81.30907        4.49080      117.35859
H         80.27474        6.38107      118.53395
H         78.74494        5.46209      118.79239
H         78.34888        5.41056      116.32964
H         79.96019        6.16484      116.03245
N         80.63623        2.72488      119.99625
C         81.17081        2.26290      121.27155
C         82.27605        1.25567      121.00069
O         83.35531        1.40219      121.55907
C         80.03863        1.62332      122.10170
C         78.95200        2.64870      122.46754
C         77.77268        2.03253      123.17555
O         77.75505        0.84739      123.46742
O         76.70445        2.79762      123.46801
H         80.02007        2.06889      119.51100
H         81.61055        3.09689      121.86331
H         80.45585        1.19197      123.03784
H         79.58212        0.79722      121.51224
H         78.57579        3.13046      121.54401
H         79.39240        3.44021      123.10898
N         82.09612        0.23942      120.11205
C         83.10866       -0.73304      119.76325
H         84.03548       -0.61145      120.35946
H         82.70555       -1.75352      119.92968
H         83.36102       -0.62490      118.68618
H         81.20688        0.16276      119.61483
Ca        75.78646       -1.20513      125.32500
O         75.51350       -2.24215      127.98208
H         74.69874       -2.10558      128.52657
H         75.24138       -2.88248      127.27766
O         78.56963       -2.09478      125.27917
H         78.76396       -1.35682      124.64937
H         79.32960       -2.08859      125.91203
O         74.56345        0.14274      122.35846
H         74.11560       -0.44835      121.70311
H         74.08591        1.00535      122.27530

Ca 1.0



