%chk=holoCaM.loop4.water3.frame134.chk
%nprocshared=20
%mem=10GB
%nosave
#b3lyp/svp scf=(tight,noincore,xqc) Test 
#IOP(5/87=12) Density=Current Pop=(MK,readradii) iop(6/33=2) iop(6/42=6)

holoCaM.loop4.water3.frame134 

   -3  1 
C         21.34797      124.46312       -2.36059
C         20.39746      125.24368       -1.50042
O         19.81724      124.66285       -0.59744
H         22.14219      124.03383       -1.70960
H         20.82026      123.63933       -2.87940
H         21.84465      125.11401       -3.11061
N         20.24793      126.58583       -1.68451
C         19.56628      127.46240       -0.74322
C         18.50354      128.34647       -1.39201
O         18.77632      128.99592       -2.39104
C         20.66374      128.31224       -0.07922
C         20.09211      129.36450        0.79597
O         19.19673      129.01564        1.71638
O         20.35317      130.54185        0.61205
H         20.76336      127.03639       -2.45588
H         19.07182      126.88137        0.06384
H         21.29719      128.80202       -0.84600
H         21.29623      127.63811        0.53915
N         17.28747      128.48384       -0.77660
C         16.20675      129.36149       -1.22550
C         15.90169      130.46517       -0.19482
O         15.49243      131.53610       -0.62346
C         14.93849      128.49611       -1.52721
C         15.26230      127.49348       -2.67080
C         13.70914      129.36038       -1.88089
C         14.11455      126.55405       -3.05124
H         17.11444      127.93159        0.07493
H         16.49089      129.87916       -2.17025
H         14.67671      127.93024       -0.60716
H         16.11516      126.85361       -2.35898
H         15.56557      128.05383       -3.58241
H         13.45085      130.04523       -1.04726
H         13.88901      129.95365       -2.80127
H         12.80889      128.72839       -2.02133
H         14.46714      125.84716       -3.83174
H         13.77198      125.96877       -2.17624
H         13.25681      127.11225       -3.47669
N         16.00596      130.27246        1.15865
C         15.51633      131.22798        2.15908
C         16.59944      131.89826        3.00279
O         16.26156      132.67486        3.88553
C         14.42737      130.53764        3.00927
C         14.77801      129.45135        4.01508
O         16.01671      129.07363        4.38597
O         13.85064      128.92677        4.60512
H         16.37266      129.38484        1.50378
H         15.00150      132.06982        1.64301
H         13.68728      130.11566        2.29473
H         13.90179      131.32202        3.59682
N         17.91780      131.70308        2.74550
C         19.00976      132.37057        3.43643
C         19.07082      132.09981        4.92701
O         19.31121      133.04678        5.66230
H         18.17294      131.09443        1.96517
H         18.94779      133.46954        3.26506
H         19.96539      132.03009        2.98294
N         18.91287      130.84635        5.44994
C         19.04057      130.56247        6.88529
C         20.20787      129.62217        7.19751
O         20.39103      129.28350        8.35868
C         17.72026      130.02989        7.48787
C         17.32613      128.64669        7.07532
O         17.94819      128.03970        6.22209
O         16.28562      128.05561        7.69153
H         18.69996      130.07186        4.80772
H         19.24779      131.50282        7.43760
H         16.88290      130.72641        7.26577
H         17.84940      129.99749        8.59085
N         21.07019      129.20326        6.22917
C         22.25624      128.40129        6.49376
C         22.02240      126.91724        6.72105
O         23.01721      126.21283        6.81733
H         20.95632      129.55865        5.27086
H         22.83559      128.84570        7.33098
H         22.89624      128.45498        5.58621
N         20.78211      126.34976        6.77060
C         20.56893      124.90245        6.81697
C         19.77537      124.45934        5.59593
O         19.31750      125.29890        4.83502
C         19.83277      124.48485        8.11049
C         20.62073      124.84963        9.37698
C         19.95314      124.28713       10.60865
N         19.49775      125.10021       11.58980
O         19.83180      123.07621       10.72578
H         19.95509      126.95004        6.73016
H         21.54067      124.36355        6.78610
H         19.69472      123.38170        8.09763
H         18.82615      124.95779        8.15254
H         20.70307      125.95553        9.44780
H         21.64624      124.42500        9.31959
H         19.58705      126.12347       11.51547
H         19.04982      124.70257       12.42936
N         19.55829      123.13425        5.36506
C         18.75074      122.61634        4.26594
C         17.52420      121.99340        4.88312
O         17.67124      121.11540        5.72390
C         19.55190      121.57604        3.42881
C         18.67665      120.93721        2.33199
C         20.77986      122.21767        2.76802
H         19.95017      122.44840        6.02878
H         18.42682      123.42979        3.58268
H         19.90647      120.76541        4.10369
H         18.28734      121.71161        1.63584
H         19.26627      120.19767        1.74861
H         17.81591      120.39482        2.77552
H         21.44387      122.68167        3.52620
H         21.36609      121.44767        2.22179
H         20.46735      122.98852        2.03611
N         16.27504      122.38749        4.50094
C         15.07093      121.82185        5.08957
C         14.45872      120.81975        4.13238
O         14.97348      120.64533        3.04286
C         14.11873      122.95535        5.55501
C         13.30501      123.59928        4.45410
N         13.45312      124.89233        4.10175
O         12.44752      122.94115        3.90210
H         16.17151      123.07407        3.73983
H         15.34532      121.24911        6.00135
H         14.72384      123.71089        6.10147
H         13.38259      122.54526        6.27863
H         14.15392      125.48151        4.54355
H         12.85537      125.30939        3.37351
N         13.38437      120.08124        4.50137
C         12.76746      119.06832        3.64837
C         12.23250      119.66701        2.34850
O         12.58806      119.18592        1.28223
C         11.68092      118.24891        4.39923
C         10.49881      119.00541        4.97755
C          9.25291      118.95668        4.32932
C         10.59910      119.71224        6.19396
C          8.14519      119.62052        4.86742
C          9.49373      120.37769        6.72573
C          8.26504      120.33842        6.06554
O          7.20771      120.98425        6.59616
H         13.03234      120.23972        5.44560
H         13.54550      118.31988        3.37344
H         12.14946      117.66827        5.22343
H         11.30854      117.49365        3.67218
H          9.13855      118.40871        3.40283
H         11.51516      119.73977        6.76286
H          7.19555      119.57791        4.35066
H          9.59254      120.91604        7.66065
H          6.33692      120.97832        6.17483
N         11.39103      120.73350        2.37083
C         10.81875      121.37355        1.18210
C         11.89647      121.80459        0.18427
O         11.79853      121.42853       -0.97528
C          9.90991      122.56381        1.58330
C          8.74073      122.10294        2.47992
C          7.79859      123.21905        2.81415
O          6.62008      123.13790        2.50636
O          8.23697      124.29484        3.49490
H         11.15408      121.10251        3.29757
H         10.16543      120.63826        0.66166
H          9.48331      123.00866        0.65713
H         10.50123      123.34849        2.10418
H          9.11685      121.71121        3.44164
H          8.18276      121.29084        1.96371
N         12.98107      122.53395        0.57208
C         14.09833      122.88118       -0.31615
C         14.67355      121.63829       -0.97492
O         14.79219      121.61767       -2.19213
C         15.19741      123.62384        0.48246
C         14.72983      125.04717        0.82923
C         15.64827      125.79403        1.74843
O         16.70534      125.19408        2.31960
O         15.40439      126.95806        2.01616
H         13.04510      122.79910        1.56255
H         13.75132      123.55561       -1.13133
H         16.12465      123.72339       -0.12685
H         15.44734      123.03573        1.39283
H         13.73105      125.02831        1.30164
H         14.65279      125.61078       -0.11925
N         15.00899      120.55085       -0.23382
C         15.52686      119.31701       -0.78507
H         16.49513      119.07829       -0.29836
H         14.80965      118.49521       -0.57420
H         15.68341      119.37573       -1.88181
H         14.85334      120.58237        0.77356
Ca        17.74500      128.34617        3.20564
O         16.12488      126.31760        5.42451
H         15.35475      126.84461        5.76034
H         16.30988      125.66761        6.14625
O         19.57743      125.62842        2.15209
H         19.03160      124.91947        1.73433
H         20.50809      125.30763        2.05958
O         20.91576      127.59601        3.61461
H         21.31505      128.40880        3.21638
H         21.62915      126.91412        3.54704

Ca 1.0



