%chk=holoCaM.loop3.water2.frame80.chk
%nprocshared=20
%mem=10GB
%nosave
#b3lyp/svp scf=(tight,noincore,xqc) Test 
#IOP(5/87=12) Density=Current Pop=(MK,readradii) iop(6/33=2) iop(6/42=6)

holoCaM.loop3.water2.frame80 

   0  1 
C          2.02188        7.14883      122.68497
C          0.53725        7.04237      122.82893
O          0.07434        6.28489      123.67164
H          2.53026        6.48249      123.41475
H          2.32071        6.86010      121.65735
H          2.33534        8.19551      122.88453
N         -0.28473        7.81074      122.05933
C         -1.72816        7.80130      122.25562
C         -2.32923        6.45385      121.82460
O         -1.64969        5.70306      121.13760
C         -2.37106        8.99956      121.50660
C         -3.70191        9.39724      122.07431
O         -4.03482        9.01531      123.32150
O         -4.43818       10.14192      121.44981
H          0.13971        8.47068      121.38827
H         -1.86957        7.94130      123.34484
H         -2.44468        8.75464      120.42339
H         -1.73838        9.90984      121.59887
N         -3.57910        6.06492      122.22235
C         -4.18635        4.77609      121.87128
C         -5.52793        4.91927      121.14109
O         -5.98686        3.93356      120.58143
C         -4.43572        3.94038      123.14553
C         -3.16242        3.59080      123.93181
C         -3.52765        2.72236      125.14782
C         -2.29008        2.26346      125.92885
N         -2.67651        1.40972      127.05403
H         -4.10240        6.68592      122.84261
H         -3.50763        4.21046      121.19663
H         -4.92390        2.98506      122.85033
H         -5.13340        4.49599      123.81246
H         -2.65050        4.51665      124.27500
H         -2.47356        3.02425      123.26826
H         -4.07149        1.81836      124.79543
H         -4.19772        3.29709      125.82505
H         -1.73295        3.14791      126.30950
H         -1.62068        1.68814      125.25128
H         -3.19451        0.56882      126.70788
H         -1.81737        1.08948      127.55633
H         -3.28082        1.94263      127.72104
N         -6.25010        6.07448      121.17827
C         -7.56461        6.26717      120.55169
C         -7.57870        7.49368      119.63910
O         -8.61695        7.76172      119.04939
C         -8.69123        6.34585      121.63131
C         -8.50452        7.42111      122.66904
O         -9.25347        7.50580      123.62796
O         -7.42000        8.19337      122.58197
H         -5.85991        6.85079      121.71257
H         -7.81687        5.38976      119.91711
H         -8.70421        5.37286      122.16910
H         -9.67938        6.47638      121.14011
N         -6.46934        8.26875      119.44021
C         -6.43803        9.39353      118.52296
C         -7.22623       10.61510      118.95822
O         -7.23036       11.56392      118.18657
H         -5.57488        8.02302      119.88473
H         -6.79236        9.05208      117.52553
H         -5.38345        9.72686      118.40548
N         -7.90128       10.70737      120.14755
C         -8.65022       11.91891      120.49774
C         -7.74330       13.13633      120.66470
O         -8.25826       14.24729      120.67033
C         -9.53651       11.72988      121.75051
C         -8.75159       11.70222      123.03852
N         -8.99353       12.59842      124.02381
O         -7.88405       10.86590      123.19356
H         -7.91717        9.90467      120.78701
H         -9.34419       12.09980      119.64627
H        -10.12114       10.78998      121.64571
H        -10.26250       12.56980      121.79846
H         -9.72571       13.31563      123.92214
H         -8.44751       12.57246      124.89807
N         -6.39223       13.00427      120.82713
C         -5.46845       14.12041      120.88981
C         -4.70149       14.22826      122.19540
O         -3.82923       15.07894      122.24661
H         -5.97631       12.06474      120.87747
H         -5.98470       15.09166      120.72488
H         -4.73715       13.99085      120.06283
N         -4.99319       13.47320      123.30552
C         -4.30144       13.68047      124.58533
C         -3.75233       12.38752      125.16376
O         -4.15573       11.31990      124.74466
C         -5.26572       14.27991      125.63258
C         -5.80307       15.63964      125.25344
C         -6.71817       15.79743      124.19594
C         -5.40088       16.77190      125.98115
C         -7.20645       17.06490      123.86685
C         -5.88875       18.03724      125.64959
C         -6.79274       18.18848      124.58939
O         -7.27125       19.40482      124.26038
H         -5.76807       12.79789      123.27264
H         -3.44705       14.37767      124.45433
H         -4.70223       14.37325      126.58725
H         -6.11913       13.59294      125.82432
H         -7.06603       14.94484      123.62857
H         -4.70266       16.67818      126.80372
H         -7.90982       17.17249      123.05061
H         -5.56262       18.89817      126.21885
H         -7.00904       20.20520      124.73736
N         -2.83234       12.43749      126.18194
C         -2.37938       11.25899      126.91945
C         -2.41443       11.53937      128.41957
O         -1.71430       12.42565      128.88262
C         -0.97070       10.76121      126.45537
C          0.17222       11.79829      126.63455
C         -1.06143       10.27711      124.99881
C          1.55823       11.24231      126.29675
H         -2.45387       13.35402      126.45780
H         -3.07186       10.41390      126.72375
H         -0.72793        9.86995      127.07890
H          0.24271       12.10725      127.69260
H         -0.02430       12.69981      126.01594
H         -1.27030       11.12110      124.30842
H         -0.13109        9.76883      124.67626
H         -1.87680        9.53293      124.91454
H          1.64539       10.97520      125.22533
H          2.32676       12.01430      126.51248
H          1.77457       10.34887      126.92103
N         -3.21252       10.81090      129.25279
C         -3.15877       10.96956      130.70774
C         -1.83647       10.43102      131.25421
O         -1.03927        9.91425      130.48763
C         -4.34704       10.24194      131.36427
O         -4.30754        8.87285      131.07674
H         -3.85566       10.11746      128.84507
H         -3.25934       12.04835      130.96045
H         -5.29063       10.67691      130.96632
H         -4.32121       10.39547      132.46580
H         -5.08392        8.46854      131.54363
N         -1.54071       10.50460      132.58271
C         -0.33583        9.91236      133.16447
C         -0.35159        8.40244      132.99924
O          0.61195        7.84314      132.49534
C         -0.23951       10.24993      134.65612
H         -2.20662       10.98470      133.20698
H          0.56988       10.33999      132.67725
H         -1.11610        9.85853      135.21437
H          0.68537        9.80636      135.08563
H         -0.19055       11.35108      134.79042
N         -1.44695        7.68833      133.38692
C         -1.57328        6.23739      133.26870
C         -1.29398        5.77046      131.85646
O         -0.48759        4.87058      131.66745
C         -2.99614        5.81173      133.66410
H         -2.25123        8.21659      133.76040
H         -0.85877        5.74120      133.96170
H         -3.21240        6.11750      134.70929
H         -3.74968        6.28780      132.99803
H         -3.10699        4.70898      133.58895
N         -1.92489        6.36743      130.81364
C         -1.75883        5.98126      129.41970
C         -0.29485        6.03026      129.01253
O          0.22876        5.01384      128.57810
C         -2.65326        6.89447      128.55912
C         -2.74616        6.46331      127.09646
C         -3.78699        7.26051      126.36039
O         -4.49365        8.23567      126.96708
O         -4.02578        6.99111      125.20036
H         -2.56149        7.14505      131.03464
H         -2.12916        4.93757      129.30188
H         -2.31542        7.95296      128.62720
H         -3.68057        6.82818      128.98376
H         -3.05158        5.39589      127.05356
H         -1.76065        6.57805      126.59572
N          0.43686        7.16584      129.17792
C          1.85332        7.26428      128.88894
H          2.27340        6.31727      128.49065
H          2.02533        8.07050      128.14703
H          2.39739        7.51804      129.82427
H         -0.02065        7.99830      129.56120
Ca        -6.11527        9.12088      124.11475
O         -6.32228       10.85888      126.79106
H         -7.27383       11.11808      126.87667
H         -5.84428       11.44969      127.42556
O         -8.11922        8.28537      126.29803
H         -8.25920        8.40182      127.27086
H         -8.63918        9.01896      125.88264

Ca 1.0



