%chk=holoCaM.loop1.water2.frame178.chk
%nprocshared=20
%mem=10GB
%nosave
#b3lyp/svp scf=(tight,noincore,xqc) Test 
#IOP(5/87=12) Density=Current Pop=(MK,readradii) iop(6/33=2) iop(6/42=6)

holoCaM.loop1.water2.frame178 

   0  1 
C          2.65005       78.20046      102.10451
C          2.29057       78.71327      103.46914
O          1.72215       77.97537      104.25762
H          3.75148       78.23892      101.96981
H          2.30207       77.15635      101.96226
H          2.17255       78.84277      101.33276
N          2.62478       79.98947      103.80159
C          2.31325       80.67530      105.05932
C          0.87466       81.20717      105.01279
O          0.65937       82.40819      104.94335
C          3.37863       81.78127      105.22125
C          3.27184       82.69090      106.40539
O          3.42629       82.25564      107.67243
O          3.17957       83.89038      106.20228
H          3.16016       80.51396      103.09050
H          2.43725       79.99219      105.92909
H          3.36339       82.41889      104.30956
H          4.37836       81.29730      105.27750
N         -0.16497       80.32772      105.01823
C         -1.58487       80.66987      104.87444
C         -2.19365       81.42467      106.06064
O         -3.35634       81.79309      105.97382
C         -2.36394       79.36371      104.56935
C         -2.37115       78.34091      105.73109
C         -2.60939       76.92066      105.19623
C         -2.58731       75.87801      106.32252
N         -2.61973       74.52060      105.77616
H          0.08098       79.33714      105.06129
H         -1.67959       81.31171      103.97094
H         -1.84536       78.91725      103.69072
H         -3.41103       79.56660      104.25568
H         -3.12955       78.63861      106.48748
H         -1.38904       78.31118      106.24437
H         -1.78059       76.68435      104.49086
H         -3.57201       76.86061      104.64425
H         -3.46214       76.03948      106.99002
H         -1.65846       75.99204      106.92559
H         -3.46789       74.38444      105.18034
H         -1.75885       74.34806      105.20597
H         -2.63839       73.83288      106.56343
N         -1.48015       81.68082      107.19336
C         -1.99932       82.39410      108.37005
C         -1.23221       83.70040      108.65083
O         -1.61918       84.41557      109.56418
C         -2.07070       81.43182      109.59132
C         -0.76653       80.77494      109.95313
O          0.33273       81.11514      109.26842
O         -0.72842       79.90688      110.80691
H         -0.51705       81.33963      107.21640
H         -3.04816       82.71268      108.18377
H         -2.77932       80.61742      109.32316
H         -2.48177       81.96180      110.47770
N         -0.21096       84.12463      107.84723
C          0.37830       85.45838      107.88780
C          1.21935       85.78334      109.10252
O          0.95442       86.78770      109.74789
H          0.09847       83.52872      107.07226
H         -0.42815       86.21443      107.76348
H          1.05533       85.56066      107.01232
N          2.29462       85.01447      109.43059
C          3.25262       85.35427      110.48549
C          4.71318       85.29109      110.00489
O          5.60218       85.46745      110.82673
C          3.00040       84.48126      111.73302
C          3.14556       82.99737      111.56382
O          3.46131       82.50337      110.49768
O          2.91022       82.19698      112.61876
H          2.43240       84.14406      108.90398
H          3.08403       86.39651      110.83802
H          1.96259       84.67734      112.07856
H          3.69140       84.80506      112.54148
N          5.04243       85.09340      108.69215
C          6.41102       85.06447      108.18704
C          7.20041       83.81109      108.53095
O          8.35249       83.74407      108.12517
H          4.29718       85.04215      107.99165
H          6.95240       85.96937      108.54042
H          6.37802       85.10913      107.07636
N          6.67247       82.78216      109.25439
C          7.41416       81.57221      109.60701
C          6.69468       80.30244      109.15662
O          5.47361       80.27298      109.09417
C          7.65108       81.52343      111.14454
C          8.71131       82.53969      111.56756
O          6.47914       81.79630      111.87142
H          5.71005       82.86131      109.59831
H          8.41380       81.55746      109.11818
H          8.04351       80.52283      111.43580
H          5.74315       81.27979      111.46556
H          8.39672       83.57351      111.31459
H          8.87232       82.47346      112.66528
H          9.67593       82.31538      111.06389
N          7.42956       79.17649      108.91764
C          6.88351       77.85026      108.63692
C          7.31595       76.92188      109.76256
O          8.49148       76.87556      110.09996
C          7.34992       77.33887      107.24213
C          6.77275       78.19963      106.08238
C          7.00212       75.84976      107.02168
C          5.23938       78.18531      105.94960
H          8.45747       79.24954      108.98102
H          5.77605       77.86471      108.62982
H          8.45941       77.41113      107.19761
H          7.19547       77.82493      105.12443
H          7.10279       79.25303      106.20280
H          7.50920       75.20952      107.77349
H          5.91344       75.66604      107.09909
H          7.35214       75.51578      106.02177
H          4.85098       77.15931      105.78491
H          4.74326       78.62393      106.83818
H          4.94382       78.79467      105.07149
N          6.38798       76.13962      110.37704
C          6.64376       75.28762      111.53404
C          6.49471       73.82275      111.16549
O          6.30719       73.50716      109.99952
C          5.64730       75.67848      112.66336
C          5.90401       77.10232      113.16990
O          4.31105       75.50176      112.24626
H          5.42821       76.14954      110.00291
H          7.68042       75.41751      111.91563
H          5.79173       75.03546      113.55346
H          4.01868       76.30907      111.74900
H          5.83275       77.83207      112.34044
H          5.16545       77.35937      113.95936
H          6.92380       77.17109      113.60258
N          6.56368       72.86623      112.13429
C          6.31689       71.44743      111.90000
C          4.92428       71.23775      111.32678
O          4.79207       70.51455      110.35031
C          6.45679       70.62469      113.20990
C          7.88061       70.65988      113.77527
O          5.55674       71.09330      114.18392
H          6.75826       73.16760      113.09871
H          7.06565       71.04751      111.17882
H          6.22890       69.56121      112.95339
H          5.22618       70.30350      114.68650
H          7.93590       70.01885      114.68074
H          8.60124       70.27087      113.02547
H          8.18086       71.68806      114.06342
N          3.83559       71.83683      111.89337
C          2.47044       71.60604      111.42341
C          2.22383       72.10483      109.99600
O          1.15955       71.81095      109.46823
C          1.43151       72.28021      112.35631
C          1.52397       71.90479      113.85242
C          1.43126       70.40484      114.17363
C          0.11413       69.76455      113.71402
N          0.04012       68.36915      114.14669
H          3.99107       72.45029      112.70457
H          2.29708       70.50781      111.43928
H          0.41043       72.03247      111.99415
H          1.54750       73.38467      112.28455
H          0.70756       72.43680      114.38826
H          2.47691       72.28005      114.27795
H          1.50953       70.29936      115.27809
H          2.29090       69.86516      113.72189
H          0.04108       69.80542      112.60575
H         -0.74397       70.32479      114.14701
H          0.84197       67.82499      113.75310
H          0.05914       68.31732      115.19151
H         -0.85510       67.95067      113.80560
N          3.12609       72.87877      109.32078
C          2.90727       73.39825      107.97181
C          3.95376       72.90746      106.97585
O          3.82095       73.23018      105.80264
C          2.95633       74.93893      107.99862
C          1.90316       75.55920      108.92049
C          2.02511       77.05533      108.90585
O          3.16444       77.64335      109.31881
O          1.09393       77.74512      108.52327
H          3.99021       73.15650      109.79220
H          1.91555       73.07371      107.58729
H          2.79661       75.33234      106.96949
H          3.96539       75.25371      108.33992
H          2.04538       75.20601      109.96421
H          0.89044       75.25719      108.57494
N          5.02699       72.15241      107.34460
C          6.02946       71.73059      106.39020
H          6.82698       71.15521      106.90703
H          5.56807       71.08530      105.61340
H          6.49238       72.61941      105.90949
H          5.16459       71.87836      108.32265
Ca         2.41957       80.54440      108.73077
O          4.02250       79.62957      112.05272
H          4.51437       79.90489      112.86698
H          3.70559       78.71849      112.26106
O          1.25505       78.31785      111.83091
H          1.34662       79.24538      112.16760
H          1.40364       77.75015      112.62718

Ca 1.0



