%chk=holoCaM.loop4.water3.frame69.chk
%nprocshared=20
%mem=10GB
%nosave
#b3lyp/svp scf=(tight,noincore,xqc) Test 
#IOP(5/87=12) Density=Current Pop=(MK,readradii) iop(6/33=2) iop(6/42=6)

holoCaM.loop4.water3.frame69 

   -3  1 
C        105.44607       11.72047       25.17943
C        105.32890       12.50980       26.44984
O        104.48397       12.19058       27.27088
H        106.45755       11.26236       25.12904
H        104.69277       10.90364       25.14908
H        105.30112       12.38204       24.30162
N        106.18644       13.54062       26.69030
C        106.24130       14.27945       27.94660
C        106.05860       15.77050       27.71829
O        106.76408       16.35085       26.90542
C        107.59289       13.97716       28.60895
C        107.84250       14.68765       29.91506
O        107.03987       14.53227       30.99187
O        108.83790       15.38549       30.02126
H        106.88834       13.76735       25.96851
H        105.45409       13.92254       28.63281
H        108.40741       14.24264       27.89914
H        107.65212       12.88493       28.79986
N        105.14856       16.45745       28.46592
C        104.89332       17.89093       28.36047
C        105.35176       18.60657       29.63509
O        105.94785       19.66808       29.51617
C        103.37646       18.15797       28.08639
C        102.89337       17.37656       26.83329
C        103.12000       19.67320       27.91463
C        101.39183       17.51484       26.55460
H        104.61005       15.93111       29.16439
H        105.45711       18.32614       27.50411
H        102.79150       17.80215       28.96275
H        103.08675       16.29392       26.98637
H        103.45959       17.70535       25.93471
H        103.43537       20.23873       28.81469
H        103.67550       20.06518       27.03505
H        102.04242       19.89376       27.78261
H        101.11565       18.55599       26.29248
H        101.11612       16.87560       25.68940
H        100.80170       17.18800       27.43704
N        105.10055       18.09827       30.88114
C        105.37287       18.82002       32.12963
C        106.52088       18.24208       32.96207
O        106.79475       18.78388       34.02457
C        104.06663       18.91083       32.95239
C        103.50975       17.59291       33.44143
O        104.07190       16.53390       33.21325
O        102.36676       17.58822       34.15178
H        104.66437       17.17104       30.95125
H        105.67886       19.86407       31.89945
H        103.29343       19.40113       32.32225
H        104.24165       19.55539       33.84004
N        107.28036       17.20121       32.52375
C        108.46804       16.71649       33.21998
C        108.24058       16.00497       34.54359
O        109.23822       15.62733       35.14329
H        107.07629       16.80772       31.60062
H        109.15368       17.57638       33.38758
H        108.99892       15.99552       32.56425
N        107.00615       15.77799       35.08213
C        106.84259       15.14074       36.39207
C        107.35630       13.70142       36.45438
O        107.60301       13.23101       37.55621
C        105.38345       15.21743       36.89677
C        104.36422       14.52717       36.02689
O        104.67939       13.99742       34.97470
O        103.07410       14.51511       36.40987
H        106.17350       16.11222       34.58224
H        107.45440       15.73318       37.10990
H        105.08822       16.28513       36.97833
H        105.33545       14.77072       37.91375
N        107.51550       12.93583       35.33643
C        108.07212       11.58770       35.35690
C        107.08295       10.50783       34.95686
O        107.51915        9.37559       34.79997
H        107.24354       13.32230       34.42261
H        108.46828       11.31480       36.35906
H        108.93097       11.57333       34.65214
N        105.74424       10.74819       34.83000
C        104.76661        9.71422       34.50354
C        103.89171       10.12755       33.33523
O        103.24341       11.16364       33.40899
C        103.83204        9.44703       35.69977
C        104.56225        8.85966       36.91349
C        103.57718        8.48926       37.99457
N        102.80141        9.43001       38.58256
O        103.47541        7.32145       38.34041
H        105.38466       11.68793       35.03053
H        105.26621        8.74947       34.26313
H        103.06924        8.70159       35.37670
H        103.30482       10.38383       35.98518
H        105.30074        9.58602       37.31379
H        105.10655        7.94284       36.59422
H        102.87289       10.42096       38.31108
H        102.12478        9.16586       39.31414
N        103.74008        9.29644       32.26571
C        102.72591        9.50629       31.23380
C        101.35378        9.46174       31.89379
O        101.04958        8.47529       32.55182
C        102.81289        8.39874       30.13508
C        101.66288        8.50814       29.11520
C        104.14299        8.46731       29.36774
H        104.30587        8.43460       32.23481
H        102.88095       10.49065       30.73965
H        102.73989        7.40196       30.62463
H        101.68482        9.49262       28.60307
H        101.74761        7.70598       28.35163
H        100.67712        8.38261       29.60820
H        104.20104        7.64007       28.62900
H        104.21786        9.42437       28.81087
H        105.01386        8.37302       30.04735
N        100.45767       10.47329       31.70669
C         99.09395       10.44291       32.22823
C         98.10756       10.21842       31.08933
O         98.52948       10.08248       29.94923
C         98.76332       11.69907       33.07998
C         98.57907       12.99604       32.32041
N         99.61481       13.63534       31.73553
O         97.46696       13.50163       32.27408
H        100.73136       11.25105       31.09811
H         98.97706        9.57468       32.91261
H         99.52357       11.83549       33.87904
H         97.80322       11.49338       33.60018
H        100.57036       13.26735       31.79169
H         99.46191       14.53312       31.25346
N         96.76934       10.14110       31.33624
C         95.76623        9.84305       30.31677
C         95.88429       10.72606       29.08601
O         95.88591       10.19344       27.98553
C         94.31775        9.88002       30.86837
C         93.78262       11.25470       31.23350
C         92.80530       11.85259       30.41525
C         94.21912       11.94819       32.37866
C         92.28872       13.11317       30.72574
C         93.69730       13.20738       32.68891
C         92.73399       13.79536       31.86536
O         92.24582       15.01256       32.17730
H         96.45864       10.25318       32.30657
H         95.93711        8.79348       29.98485
H         94.20434        9.19016       31.73187
H         93.68373        9.46460       30.05328
H         92.44644       11.34763       29.52705
H         94.94636       11.52785       33.05206
H         91.54421       13.55862       30.07827
H         94.04195       13.72579       33.57488
H         91.58162       15.45567       31.63039
N         96.00054       12.07781       29.19325
C         96.13844       12.95451       28.03289
C         97.37989       12.59178       27.23804
O         97.28025       12.35353       26.04236
C         96.22998       14.43960       28.45664
C         94.95497       14.92843       29.15931
C         95.04658       16.38660       29.50319
O         94.96715       16.78284       30.78793
O         95.17713       17.22089       28.62147
H         96.01871       12.48731       30.13769
H         95.24433       12.84826       27.37791
H         96.37727       15.05292       27.53926
H         97.10510       14.59831       29.12568
H         94.80204       14.35702       30.09427
H         94.07497       14.77168       28.49909
N         98.59236       12.54489       27.85357
C         99.85229       12.29928       27.15256
C         99.96686       10.90373       26.54314
O        100.94619       10.66821       25.84813
C        101.03016       12.52829       28.11858
C        101.08965       13.98912       28.59620
C        102.17239       14.23059       29.60296
O        102.95699       13.23117       30.04700
O        102.34998       15.36107       30.02447
H         98.61312       12.73826       28.86633
H         99.93725       13.03481       26.32154
H        101.98812       12.29485       27.61103
H        100.91813       11.83933       28.97806
H        100.13404       14.30481       29.05315
H        101.27590       14.63617       27.71334
N         99.03407        9.93128       26.74887
C         99.11099        8.60909       26.15997
H        100.00658        8.47845       25.51714
H         99.14281        7.84760       26.96668
H         98.20833        8.43479       25.53709
H         98.22843       10.11462       27.35251
Ca       104.89471       13.84642       31.00268
O        107.30266       12.01336       32.20689
H        107.56162       11.08034       32.00522
H        108.15957       12.50773       32.23621
O        105.62985       11.12189       30.17145
H        104.87428       11.52761       29.68149
H        106.30575       10.93686       29.47356
O        102.30203       14.11668       33.42786
H        101.78375       13.58436       34.08241
H        101.77188       14.94348       33.30619

Ca 1.0



