%chk=holoCaM-CaMKII.loop4.water2.frame286.chk
%nprocshared=20
%mem=10GB
%nosave
#b3lyp/svp scf=(tight,noincore,xqc) Test 
#IOP(5/87=12) Density=Current Pop=(MK,readradii) iop(6/33=2) iop(6/42=6)

holoCaM-CaMKII.loop4.water2.frame286 

   -3  1 
C         41.08517       43.36932       75.81203
C         39.85732       43.23883       76.66372
O         38.75377       43.38989       76.16110
H         41.66410       42.42191       75.84213
H         40.81793       43.59406       74.75806
H         41.71903       44.19242       76.20480
N         39.98729       42.94341       77.98409
C         38.85803       42.80126       78.89369
C         38.11818       44.12541       79.05703
O         38.73777       45.13438       79.36188
C         39.35127       42.27157       80.25205
C         38.22475       42.05393       81.21905
O         38.23233       42.70167       82.39634
O         37.31143       41.28820       80.95225
H         40.94079       42.79368       78.35100
H         38.17334       42.02496       78.49088
H         40.08226       42.98283       80.69265
H         39.86105       41.29525       80.09456
N         36.76503       44.15872       78.91228
C         35.92873       45.35418       79.02830
C         35.09912       45.30918       80.31156
O         34.89528       46.34837       80.92379
C         34.97127       45.43711       77.79379
C         35.77183       45.41580       76.46669
C         34.06500       46.68590       77.87475
C         34.88847       45.37639       75.21525
H         36.29400       43.26781       78.70963
H         36.55433       46.27483       79.05522
H         34.31437       44.53716       77.80852
H         36.39251       44.49735       76.43987
H         36.44906       46.29506       76.41113
H         34.67482       47.61359       77.84942
H         33.33310       46.70895       77.04368
H         33.45540       46.68201       78.80105
H         34.19243       44.51257       75.25551
H         34.29979       46.30754       75.09986
H         35.52968       45.27276       74.31505
N         34.56303       44.13834       80.75040
C         33.59468       44.01333       81.83794
C         34.19368       43.50264       83.15024
O         33.42904       43.16211       84.04305
C         32.38067       43.17660       81.35180
C         32.71710       41.76440       80.92843
O         33.98854       41.32540       80.97667
O         31.83287       41.01891       80.54052
H         34.82494       43.29065       80.24644
H         33.18704       45.01502       82.10009
H         31.92070       43.69629       80.48337
H         31.62056       43.13486       82.16218
N         35.52642       43.61909       83.41852
C         36.06673       43.46465       84.76592
C         36.11623       42.05884       85.33745
O         36.41595       41.95533       86.51850
H         36.15006       44.00046       82.69434
H         35.46557       44.10528       85.44762
H         37.10601       43.85975       84.79321
N         35.93371       40.93606       84.58498
C         36.09453       39.58111       85.13362
C         37.44594       38.97090       84.76662
O         37.68781       37.82774       85.12973
C         34.89028       38.68073       84.78040
C         34.56358       38.68744       83.32427
O         35.46641       38.33379       82.39385
O         33.47586       39.11138       82.96465
H         35.77735       41.04262       83.57135
H         36.11969       39.60447       86.24484
H         34.00123       39.06901       85.32608
H         35.06703       37.64031       85.12553
N         38.42494       39.71235       84.17180
C         39.79668       39.25520       84.00684
C         40.01412       38.20770       82.94078
O         41.16949       37.86892       82.72179
H         38.24183       40.69397       83.93213
H         40.18928       38.89700       84.98350
H         40.41042       40.13101       83.70219
N         38.99613       37.66670       82.21539
C         39.21422       36.75021       81.10181
C         38.64713       37.36078       79.83372
O         38.06090       38.43583       79.89463
C         38.60927       35.36883       81.42189
C         39.35451       34.71010       82.59698
C         38.81868       33.33595       82.90446
N         38.33812       33.03998       84.13500
O         38.83741       32.47280       82.03935
H         38.02418       37.93148       82.42297
H         40.30124       36.60590       80.91166
H         38.71345       34.70699       80.53523
H         37.52903       35.47011       81.66163
H         39.27782       35.35588       83.49802
H         40.43061       34.60843       82.33561
H         38.32578       33.74744       84.88410
H         37.98560       32.09428       84.34462
N         38.84543       36.75849       78.62782
C         38.43202       37.35807       77.36436
C         37.48404       36.41466       76.64907
O         37.84724       35.26187       76.45167
C         39.67390       37.67790       76.48240
C         39.26416       38.53235       75.26873
C         40.75672       38.43529       77.27157
H         39.36342       35.86596       78.59411
H         37.92140       38.32251       77.54892
H         40.12969       36.72760       76.12580
H         40.14406       38.74422       74.62532
H         38.50372       38.01448       74.65115
H         38.84371       39.50451       75.60925
H         41.62552       38.65471       76.61405
H         40.36155       39.39097       77.67762
H         41.13304       37.81516       78.11261
N         36.27371       36.84647       76.18604
C         35.35361       35.98110       75.44797
C         35.39144       36.31547       73.96726
O         36.15038       37.18292       73.57658
C         33.91669       36.01140       76.03702
C         33.04643       37.17809       75.61056
N         33.30675       38.44868       75.98188
O         32.06089       36.95412       74.92248
H         36.04422       37.84198       76.29312
H         35.69414       34.92671       75.54005
H         33.94902       35.92356       77.14416
H         33.40351       35.09687       75.66672
H         34.10021       38.67747       76.58883
H         32.68272       39.21055       75.67629
N         34.60777       35.65115       73.07889
C         34.61394       35.89371       71.63568
C         34.31179       37.34530       71.28539
O         35.09886       37.95156       70.57233
C         33.59549       34.94154       70.97357
C         33.41371       35.16298       69.49142
C         34.49887       35.08687       68.60212
C         32.13162       35.44084       68.98744
C         34.30085       35.28960       67.23190
C         31.93524       35.63348       67.61956
C         33.02004       35.55912       66.73584
O         32.84221       35.74162       65.41214
H         33.97673       34.92490       73.45071
H         35.62290       35.65134       71.23287
H         32.61385       35.06066       71.48391
H         33.93430       33.89626       71.14233
H         35.49606       34.87503       68.96595
H         31.27848       35.50041       69.65233
H         35.14325       35.23333       66.55425
H         30.93858       35.83827       67.24953
H         31.97004       35.92038       65.03186
N         33.18937       37.96021       71.74313
C         32.81959       39.33630       71.40234
C         33.94036       40.31388       71.72424
O         34.29678       41.09530       70.85277
C         31.50291       39.72851       72.10606
C         30.31862       38.91811       71.53986
C         29.03150       39.24286       72.23777
O         28.34371       38.26816       72.86351
O         28.58956       40.38046       72.22413
H         32.57941       37.41922       72.37211
H         32.63572       39.41186       70.30631
H         31.29414       40.80629       71.92319
H         31.60240       39.57225       73.20315
H         30.50394       37.82921       71.64335
H         30.20418       39.14374       70.45653
N         34.58968       40.28459       72.92022
C         35.73527       41.14661       73.22810
C         36.83070       40.97500       72.18215
O         37.19219       41.95771       71.54998
C         36.25452       40.85309       74.65371
C         35.23150       41.34276       75.69740
C         35.56802       40.99452       77.11664
O         34.72370       41.36484       78.09667
O         36.57239       40.36398       77.39635
H         34.28406       39.58503       73.61342
H         35.41799       42.21369       73.19842
H         37.21119       41.38998       74.83614
H         36.44042       39.76149       74.75749
H         34.23518       40.91763       75.48346
H         35.15321       42.44402       75.62192
N         37.36596       39.75427       71.91218
C         38.34577       39.50949       70.87280
H         39.25514       39.05659       71.31856
H         37.91979       38.79705       70.13347
H         38.63407       40.43525       70.33308
H         37.04327       38.94579       72.44385
Ca        34.79915       39.29007       80.50213
O         34.92440       36.12706       80.27231
H         35.80022       36.57239       80.39178
H         34.55186       36.06074       81.18754
O         32.64578       38.16811       78.88507
H         32.67913       39.14833       78.74752
H         31.68117       37.96044       78.95343

Ca 1.0



