%chk=holoCaM.loop1.water2.frame171.chk
%nprocshared=20
%mem=10GB
%nosave
#b3lyp/svp scf=(tight,noincore,xqc) Test 
#IOP(5/87=12) Density=Current Pop=(MK,readradii) iop(6/33=2) iop(6/42=6)

holoCaM.loop1.water2.frame171 

   0  1 
C          2.88041       59.37638        0.16195
C          3.29807       57.98563       -0.20420
O          2.66098       57.38729       -1.05682
H          1.83105       59.35527        0.52374
H          3.52139       59.79176        0.96776
H          2.95099       60.03482       -0.72807
N          4.37980       57.41111        0.38902
C          4.80758       56.04715        0.11207
C          3.83287       55.07074        0.76481
O          3.92557       54.82375        1.95932
C          6.26330       55.88431        0.58672
C          6.78312       54.49488        0.46423
O          6.77160       53.90568       -0.60371
O          7.29146       53.90518        1.55650
H          4.92864       57.97819        1.05418
H          4.81960       55.88580       -0.99054
H          6.35298       56.18995        1.65231
H          6.90610       56.55970       -0.01992
N          2.79228       54.57396        0.03821
C          1.71591       53.76022        0.60115
C          2.13064       52.33411        0.94800
O          1.32787       51.65716        1.57659
C          0.52907       53.69356       -0.39405
C         -0.11836       55.07068       -0.61881
C         -1.24638       54.99877       -1.65446
C         -1.94711       56.35821       -1.78897
N         -3.01842       56.30224       -2.78259
H          2.71085       54.88474       -0.93752
H          1.35861       54.25201        1.53372
H         -0.26074       53.01791        0.00266
H          0.88853       53.27446       -1.36087
H          0.62927       55.80543       -0.97759
H         -0.52582       55.42756        0.35238
H         -1.99387       54.23833       -1.34054
H         -0.82114       54.69867       -2.63827
H         -1.20983       57.13650       -2.08813
H         -2.37868       56.64425       -0.80358
H         -2.62158       56.08558       -3.72567
H         -3.71957       55.57286       -2.51714
H         -3.49681       57.23131       -2.82139
N          3.30464       51.77739        0.52599
C          3.64982       50.37401        0.77814
C          5.00331       50.18180        1.47599
O          5.36466       49.04005        1.72621
C          3.48517       49.52765       -0.50713
C          4.29681       49.92310       -1.70475
O          4.27276       49.21239       -2.69658
O          5.04987       51.03223       -1.71639
H          3.93898       52.34452       -0.05119
H          2.91617       49.92069        1.48071
H          2.41684       49.54818       -0.81525
H          3.73563       48.47410       -0.25342
N          5.74888       51.23276        1.92247
C          6.91267       51.07967        2.79150
C          8.14955       50.49148        2.13865
O          8.65963       49.50057        2.64119
H          5.41242       52.19052        1.75757
H          6.62298       50.47912        3.68185
H          7.20393       52.07796        3.17515
N          8.72502       51.09333        1.05782
C         10.00931       50.68061        0.47321
C         11.03628       51.81579        0.39112
O         12.18081       51.51534        0.07961
C          9.79848       50.02743       -0.91468
C          9.05993       50.87707       -1.91161
O          8.69050       52.00237       -1.63135
O          8.62278       50.33786       -3.05799
H          8.21621       51.87950        0.64453
H         10.47062       49.90273        1.11993
H          9.17748       49.12033       -0.75268
H         10.76786       49.70408       -1.35014
N         10.72139       53.12845        0.61148
C         11.69166       54.21407        0.53273
C         11.50355       55.08016       -0.69967
O         12.18906       56.08644       -0.80560
H          9.75203       53.40215        0.81095
H         12.73588       53.83434        0.49979
H         11.59456       54.83092        1.45182
N         10.66493       54.71019       -1.71107
C         10.52597       55.43935       -2.96766
C          9.06686       55.69399       -3.30799
O          8.17575       55.15984       -2.66550
C         11.19898       54.64012       -4.11677
C         12.72805       54.66382       -4.02420
O         10.72971       53.31476       -4.16325
H         10.15296       53.82987       -1.62654
H         11.01438       56.43541       -2.89295
H         10.95568       55.11869       -5.08977
H         11.14530       52.80541       -3.41788
H         13.08116       54.21134       -3.07468
H         13.15802       54.09483       -4.87624
H         13.08901       55.71231       -4.08588
N          8.76964       56.55225       -4.32513
C          7.42160       56.87298       -4.77202
C          7.33794       56.62839       -6.27641
O          7.98992       57.32802       -7.03890
C          7.08831       58.34423       -4.34296
C          6.78708       58.35441       -2.81516
C          5.91335       58.95158       -5.12172
C          6.47712       59.72965       -2.22113
H          9.54880       57.03807       -4.79530
H          6.67354       56.20649       -4.28932
H          7.96752       58.98781       -4.57001
H          7.65873       57.94287       -2.26554
H          5.91055       57.69756       -2.61207
H          5.75799       60.01472       -4.85008
H          6.12368       58.96372       -6.20889
H          4.98866       58.39313       -4.91334
H          5.55714       60.16756       -2.65965
H          6.29146       59.62006       -1.13124
H          7.33234       60.41879       -2.37481
N          6.53437       55.63571       -6.76717
C          6.29593       55.40480       -8.19327
C          5.49369       56.55714       -8.77078
O          5.15962       57.47351       -8.03753
C          5.50618       54.08181       -8.43580
C          6.25902       52.83693       -7.94980
O          4.21237       54.14577       -7.88523
H          6.06058       55.03001       -6.09232
H          7.27186       55.31593       -8.71953
H          5.38502       53.93268       -9.52858
H          4.27007       53.89018       -6.93088
H          7.25699       52.77485       -8.43204
H          6.38242       52.86221       -6.85153
H          5.68063       51.92547       -8.21052
N          5.11385       56.57568      -10.07558
C          4.24993       57.62183      -10.60824
C          2.87019       57.53674       -9.94455
O          2.42695       58.52667       -9.38140
C          4.16874       57.53071      -12.14936
C          3.46176       58.75811      -12.73773
O          5.47551       57.48795      -12.66723
H          5.44056       55.82488      -10.70326
H          4.72052       58.60730      -10.38316
H          3.62248       56.59908      -12.42745
H          5.42599       57.03478      -13.54911
H          4.01717       59.68332      -12.46464
H          3.43883       58.68594      -13.84545
H          2.42114       58.84039      -12.36377
N          2.15314       56.36757       -9.94882
C          0.82896       56.21696       -9.32454
C          0.79739       56.40876       -7.80615
O         -0.29941       56.40902       -7.26192
C          0.19134       54.85193       -9.68578
C         -0.23937       54.82753      -11.16003
C         -1.03780       53.56213      -11.51470
C         -1.75502       53.69426      -12.87210
N         -0.83083       53.79939      -14.00138
H          2.55899       55.55704      -10.44032
H          0.16565       57.01264       -9.73066
H         -0.74044       54.72456       -9.09077
H          0.87457       54.01083       -9.43216
H          0.64362       54.93519      -11.82293
H         -0.91255       55.69938      -11.31458
H         -1.83911       53.42629      -10.75521
H         -0.38284       52.66407      -11.48962
H         -2.41456       54.59120      -12.84530
H         -2.40701       52.80575      -13.02273
H         -0.18501       54.61179      -13.88908
H         -0.28328       52.91415      -14.09623
H         -1.38697       53.94905      -14.87439
N          1.91041       56.65217       -7.06387
C          1.85178       57.08780       -5.67261
C          1.91408       58.60695       -5.67328
O          1.00692       59.23294       -5.14200
C          2.95554       56.40120       -4.83499
C          2.64594       54.90520       -4.64043
C          3.71090       54.17809       -3.86147
O          4.86089       54.14399       -4.25959
O          3.38891       53.50161       -2.74640
H          2.82374       56.68502       -7.52894
H          0.87804       56.82763       -5.19806
H          3.00945       56.87545       -3.83036
H          3.93561       56.51888       -5.34214
H          2.53668       54.41813       -5.62765
H          1.67905       54.80211       -4.10094
N          2.90051       59.27351       -6.32955
C          2.91626       60.71366       -6.46059
H          3.79358       61.02694       -7.06711
H          1.99595       61.05200       -6.98505
H          2.97678       61.19166       -5.46191
H          3.64144       58.74514       -6.79561
Ca         6.58008       51.17979       -3.33339
O          4.99459       50.69931       -5.81615
H          4.43646       50.78696       -5.00314
H          5.67118       50.01347       -5.58614
O          8.40576       52.66849       -5.45373
H          8.23743       51.71026       -5.63739
H          8.30569       52.75727       -4.47354

Ca 1.0



