%chk=holoCaM.loop2.water2.frame184.chk
%nprocshared=20
%mem=10GB
%nosave
#b3lyp/svp scf=(tight,noincore,xqc) Test 
#IOP(5/87=12) Density=Current Pop=(MK,readradii) iop(6/33=2) iop(6/42=6)

holoCaM.loop2.water2.frame184 

   -2  1 
C         49.81979       73.40946       93.73289
C         51.07049       73.82832       93.01356
O         51.02355       74.10281       91.82372
H         48.94908       73.38255       93.04467
H         49.95892       72.40365       94.18196
H         49.60483       74.13671       94.54587
N         52.23700       73.91886       93.70490
C         53.49017       74.39993       93.13481
C         54.00298       73.52492       91.99787
O         54.10926       72.31756       92.15913
C         54.55474       74.50063       94.24211
C         55.82401       75.09047       93.71043
O         56.98449       74.41549       93.80478
O         55.79895       76.17708       93.16225
H         52.21418       73.67875       94.70908
H         53.31905       75.43279       92.75605
H         54.75747       73.50052       94.68130
H         54.17474       75.16768       95.04602
N         54.40794       74.11311       90.83458
C         54.93842       73.40528       89.67631
C         56.37554       73.82418       89.34846
O         56.85837       73.43292       88.29406
C         54.02910       73.72214       88.48077
H         54.34551       75.13821       90.75983
H         54.92513       72.30402       89.82919
H         54.03396       74.81338       88.26578
H         54.37040       73.18053       87.57236
H         52.98683       73.40667       88.69864
N         57.13309       74.59553       90.18838
C         58.45052       75.11442       89.81154
C         59.31330       75.50462       91.01773
O         60.41932       74.98618       91.09707
C         58.31496       76.24151       88.75045
C         57.18110       77.18292       89.03732
O         57.14032       77.91005       90.16028
O         56.21593       77.20195       88.28870
H         56.75625       74.85700       91.10671
H         59.03742       74.30337       89.32199
H         58.07266       75.75654       87.77928
H         59.27494       76.78368       88.61553
N         58.91435       76.37932       91.98800
C         59.76970       76.77149       93.10690
C         60.01968       78.27099       93.18473
O         60.74030       78.68463       94.08191
H         57.96524       76.76262       91.96545
H         60.76090       76.27358       93.05071
H         59.28562       76.44741       94.05281
N         59.46817       79.14870       92.29646
C         59.67347       80.59940       92.32175
C         59.07875       81.32391       93.54722
O         59.17041       82.54356       93.58592
C         59.13822       81.22557       91.00683
C         57.65074       81.11180       90.78495
N         57.09960       81.66272       89.68366
O         56.93595       80.52966       91.58446
H         58.91326       78.76848       91.52442
H         60.76891       80.79220       92.31188
H         59.64952       80.74026       90.14569
H         59.40611       82.30366       90.98885
H         57.67827       82.15582       88.98833
H         56.08705       81.60066       89.53600
N         58.50302       80.66641       94.59844
C         58.01658       81.32600       95.80285
C         56.64418       81.97194       95.68561
O         56.19544       82.51472       96.68387
H         58.50034       79.64520       94.61874
H         58.77259       82.06444       96.15125
H         57.92086       80.55875       96.60106
N         55.91693       81.96245       94.53038
C         54.60410       82.60274       94.38823
C         53.55930       81.62899       93.84147
O         53.89226       80.48741       93.56385
C         54.75340       83.81812       93.43697
C         55.66726       84.88102       94.05223
O         55.28760       83.42584       92.19703
H         56.32270       81.52792       93.69581
H         54.22846       82.97138       95.36771
H         53.77160       84.31674       93.27985
H         54.58518       82.90894       91.72368
H         56.69129       84.48302       94.21394
H         55.73474       85.75748       93.37457
H         55.25519       85.22113       95.02692
N         52.27548       82.05280       93.60257
C         51.27309       81.23836       92.91759
C         51.06195       81.83460       91.52995
O         50.53753       82.93283       91.41303
C         49.93422       81.14437       93.72567
C         50.15817       80.39766       95.06719
C         48.83452       80.44156       92.89985
C         48.89789       80.27808       95.93508
H         52.02067       83.02423       93.83059
H         51.65438       80.20875       92.78516
H         49.57864       82.17742       93.93671
H         50.92597       80.93909       95.65868
H         50.53391       79.37090       94.86470
H         48.65697       80.96280       91.93937
H         49.11385       79.38888       92.70548
H         47.85651       80.46179       93.41968
H         48.48338       81.28232       96.16238
H         48.11747       79.66105       95.44314
H         49.14985       79.76892       96.88866
N         51.48531       81.14877       90.42759
C         51.31264       81.61010       89.05029
C         49.86013       81.55362       88.61385
O         49.00815       81.14338       89.38567
C         52.14007       80.71672       88.09617
C         53.60576       80.87348       88.33422
O         54.35470       79.81190       88.67983
O         54.13049       81.96366       88.17365
H         51.98958       80.26549       90.57906
H         51.67626       82.65805       88.95952
H         51.98115       81.00248       87.03912
H         51.83517       79.65360       88.21816
N         49.51103       81.94473       87.35613
C         48.15667       81.86012       86.82986
C         47.63171       80.41948       86.77931
O         46.59391       80.19563       87.38418
C         48.07105       82.53212       85.44081
C         46.69089       82.39550       84.84159
C         45.56952       82.94582       85.48710
C         46.51306       81.69062       83.63847
C         44.29316       82.78470       84.94081
C         45.23530       81.53321       83.09577
C         44.12589       82.07781       83.74717
H         50.24543       82.33278       86.74352
H         47.49186       82.44547       87.50493
H         48.82286       82.08463       84.76303
H         48.33017       83.60919       85.53357
H         45.68047       83.49208       86.41502
H         47.36048       81.25412       83.12448
H         43.43306       83.20474       85.44564
H         45.10555       80.98436       82.17216
H         43.13670       81.95083       83.32761
N         48.22790       79.39243       86.08287
C         47.63025       78.06381       85.97867
C         47.61713       77.31025       87.29738
O         46.96052       76.28029       87.37364
C         48.47498       77.36934       84.90553
C         49.83568       77.99922       85.12500
C         49.46754       79.46616       85.34017
H         46.57971       78.14155       85.62168
H         48.44171       76.25849       84.91132
H         48.12788       77.72306       83.90781
H         50.24482       77.59371       86.07900
H         50.58083       77.82830       84.31903
H         50.28934       79.95404       85.89455
H         49.27922       79.96978       84.36960
N         48.30787       77.75615       88.37785
C         48.21474       77.14567       89.69527
C         46.93779       77.61720       90.35672
O         46.15933       76.79794       90.82189
C         49.43349       77.54155       90.53912
C         50.72169       77.01803       89.89241
C         51.94675       77.43844       90.62929
O         51.89112       78.03041       91.69221
O         53.13029       77.20992       90.05686
H         48.91527       78.58235       88.27441
H         48.23618       76.03386       89.62489
H         49.34041       77.11407       91.56225
H         49.49400       78.64878       90.60703
H         50.81199       77.43427       88.86794
H         50.70703       75.90969       89.81388
N         46.64895       78.94746       90.39832
C         45.44520       79.47932       90.99129
H         44.55215       79.03084       90.50796
H         45.43770       79.27053       92.08041
H         45.41133       80.58066       90.83843
H         47.29610       79.61355       89.96375
Ca        55.03234       78.07201       90.83398
O         53.37097       77.72696       94.19409
H         52.38578       77.80319       94.23849
H         53.65995       77.70746       95.14003
O         56.31753       78.74184       93.80276
H         57.05206       78.10305       93.98236
H         55.90586       78.89229       94.68935

Ca 1.0



