%chk=holoCaM.loop3.water2.frame148.chk
%nprocshared=20
%mem=10GB
%nosave
#b3lyp/svp scf=(tight,noincore,xqc) Test 
#IOP(5/87=12) Density=Current Pop=(MK,readradii) iop(6/33=2) iop(6/42=6)

holoCaM.loop3.water2.frame148 

   0  1 
C          7.16105       80.71463       -1.21079
C          7.83964       81.83618       -0.48429
O          8.78705       82.40240       -1.01110
H          6.09499       80.96854       -1.38137
H          7.65146       80.52468       -2.18943
H          7.22388       79.78861       -0.59984
N          7.42255       82.18183        0.76525
C          8.07403       83.20155        1.57397
C          8.77366       82.48748        2.70978
O          8.11174       81.79421        3.47082
C          7.03190       84.22194        2.08079
C          7.63401       85.39491        2.80907
O          8.84221       85.50467        2.94131
O          6.82644       86.35328        3.29929
H          6.64465       81.65020        1.18754
H          8.82462       83.75191        0.96395
H          6.30415       83.71200        2.74862
H          6.47103       84.62849        1.21661
N         10.13103       82.53413        2.82763
C         10.84871       81.69982        3.78721
C         10.69579       82.14711        5.23569
O         11.08506       81.37828        6.10371
C         12.32416       81.52589        3.37185
C         12.40286       80.76697        2.03110
C         13.84353       80.43551        1.62978
C         13.92267       79.62486        0.32037
N         13.27241       78.31438        0.42713
H         10.66620       83.08028        2.13482
H         10.39784       80.68201        3.74311
H         12.83932       80.90818        4.13928
H         12.83639       82.51141        3.30850
H         11.92481       81.35510        1.21798
H         11.84250       79.81849        2.15794
H         14.33331       79.85496        2.44138
H         14.40370       81.38573        1.49148
H         14.99739       79.46838        0.08094
H         13.46638       80.20088       -0.51497
H         13.65976       77.78074        1.23905
H         12.23756       78.41501        0.52619
H         13.45312       77.77189       -0.44797
N         10.10208       83.32511        5.58692
C          9.75819       83.66441        6.97114
C          8.24591       83.78341        7.15189
O          7.81253       83.94692        8.28430
C         10.53307       84.90379        7.45744
C         10.42059       86.06666        6.52904
O          9.24136       86.64937        6.25871
O         11.42440       86.47278        5.96393
H          9.83432       83.98955        4.84737
H         10.05558       82.84058        7.65567
H         11.60850       84.62222        7.51229
H         10.21070       85.19580        8.47962
N          7.37591       83.62570        6.10840
C          5.93893       83.50561        6.26969
C          5.22737       84.74394        6.75338
O          4.02802       84.63723        6.97189
H          7.72838       83.48135        5.15910
H          5.74098       82.67508        6.98280
H          5.48508       83.22352        5.29447
N          5.85228       85.94091        6.96573
C          5.12614       87.06854        7.54248
C          4.02432       87.59795        6.62407
O          3.20485       88.37391        7.09408
C          6.08499       88.18021        8.02547
C          6.61651       89.07610        6.93447
N          6.47079       90.41958        7.02892
O          7.19213       88.59714        5.97181
H          6.86074       86.02843        6.79032
H          4.65250       86.66798        8.46716
H          6.93537       87.70468        8.56277
H          5.54757       88.81109        8.76507
H          6.00150       90.84612        7.84208
H          6.84031       91.04278        6.29656
N          3.94859       87.23083        5.30681
C          2.87482       87.63452        4.41045
C          3.33729       88.55019        3.29545
O          2.51192       88.89167        2.46000
H          4.67777       86.62768        4.90132
H          2.07031       88.16974        4.95861
H          2.42932       86.71523        3.97373
N          4.60508       89.05117        3.25166
C          5.04206       90.06447        2.29767
C          6.30829       89.61644        1.59292
O          7.28288       89.29174        2.25727
C          5.27429       91.37287        3.07703
C          3.96274       91.87001        3.64706
C          3.69684       91.77792        5.02248
C          2.98067       92.40888        2.79661
C          2.47012       92.20674        5.53782
C          1.75911       92.85019        3.31518
C          1.49845       92.74609        4.68896
O          0.32151       93.15743        5.20276
H          5.27721       88.78793        3.98651
H          4.26308       90.26911        1.53030
H          5.70738       92.16699        2.43003
H          6.00434       91.16718        3.89023
H          4.42695       91.35486        5.69412
H          3.16342       92.49284        1.73244
H          2.27362       92.11567        6.59867
H          1.01525       93.26846        2.64846
H         -0.37755       93.53615        4.65071
N          6.36784       89.61814        0.23047
C          7.54823       89.24603       -0.54086
C          8.09005       90.49390       -1.22276
O          7.35525       91.17465       -1.92496
C          7.20282       88.11271       -1.55576
C          6.79704       86.82825       -0.78266
C          8.39588       87.82723       -2.49352
C          6.39079       85.65769       -1.68381
H          5.54232       89.93860       -0.29959
H          8.34616       88.84726        0.12117
H          6.35158       88.44756       -2.18920
H          5.93102       87.05775       -0.12583
H          7.64132       86.49797       -0.13691
H          8.67831       88.73611       -3.06055
H          9.27245       87.46857       -1.91830
H          8.13724       87.07171       -3.26072
H          7.24067       85.30489       -2.30220
H          6.07074       84.79737       -1.06162
H          5.54604       85.95150       -2.34030
N          9.40885       90.80892       -1.08694
C         10.06947       91.93795       -1.72572
C         10.85022       91.44687       -2.93066
O         10.77747       90.27071       -3.24116
C         10.99041       92.63085       -0.69990
O         12.02678       91.77173       -0.29284
H         10.00862       90.15801       -0.57004
H          9.32247       92.67594       -2.08958
H         10.39188       92.98000        0.17381
H         11.45315       93.53951       -1.13589
H         11.79386       91.42840        0.60837
N         11.60802       92.29449       -3.67689
C         12.36614       91.85775       -4.84700
C         13.38400       90.78605       -4.48650
O         13.38214       89.73414       -5.10999
C         13.07666       93.05234       -5.48955
H         11.64258       93.28890       -3.40577
H         11.66149       91.44997       -5.60712
H         12.32784       93.81682       -5.78873
H         13.79631       93.51529       -4.78169
H         13.62296       92.72527       -6.40000
N         14.27596       90.98712       -3.47592
C         15.29689       90.01574       -3.08450
C         14.69370       88.67137       -2.72174
O         15.11495       87.66281       -3.27062
C         16.09668       90.55121       -1.89033
H         14.21880       91.87688       -2.95608
H         16.00885       89.87363       -3.92779
H         15.43499       90.72009       -1.01318
H         16.89041       89.82787       -1.60504
H         16.58091       91.51373       -2.15946
N         13.68481       88.59194       -1.81367
C         13.05113       87.33882       -1.40517
C         12.52309       86.56363       -2.60211
O         12.73852       85.36141       -2.66516
C         11.90558       87.61702       -0.41320
C         12.42031       88.21339        0.90754
C         11.29353       88.44665        1.86382
O         10.40781       89.24514        1.61713
O         11.25626       87.75334        3.00487
H         13.33498       89.47796       -1.41938
H         13.79217       86.69205       -0.88337
H         11.38974       86.65885       -0.17574
H         11.17385       88.29808       -0.88676
H         12.95508       89.17165        0.75556
H         13.13144       87.48920        1.36324
N         11.86641       87.19772       -3.60994
C         11.36098       86.53496       -4.79359
H         10.27677       86.74755       -4.89639
H         11.88816       86.93159       -5.68742
H         11.50496       85.43546       -4.75765
H         11.75187       88.21178       -3.55951
Ca         9.52693       87.86288        4.41416
O          8.88655       91.15674        3.99735
H          9.77098       90.71476        3.94747
H          8.91604       91.85081        3.29202
O          9.85680       89.58246        6.84676
H         10.52140       89.60450        7.57924
H          9.64040       90.53246        6.67257

Ca 1.0



