%chk=holoCaM-CaMKII.loop1.water2.frame107.chk
%nprocshared=20
%mem=10GB
%nosave
#b3lyp/svp scf=(tight,noincore,xqc) Test 
#IOP(5/87=12) Density=Current Pop=(MK,readradii) iop(6/33=2) iop(6/42=6)

holoCaM-CaMKII.loop1.water2.frame107 

   0  1 
C         23.50702       31.05024       49.02278
C         23.23283       30.26411       47.77227
O         23.00789       29.06999       47.86478
H         23.72506       32.11545       48.79420
H         22.62636       31.00711       49.69592
H         24.38891       30.62090       49.54393
N         23.25066       30.87612       46.55744
C         23.04201       30.18932       45.28092
C         24.12613       29.12675       45.11611
O         25.29443       29.48792       45.15960
C         23.11909       31.26892       44.16507
C         22.95204       30.89473       42.71430
O         23.28986       31.71407       41.87904
O         22.39379       29.75020       42.28744
H         23.44119       31.89066       46.54495
H         22.03527       29.72845       45.28613
H         24.13295       31.71789       44.24394
H         22.38276       32.07516       44.37859
N         23.82251       27.80083       44.95095
C         24.84850       26.75641       44.87889
C         24.99544       26.16844       43.47970
O         25.93348       25.40534       43.29012
C         24.55320       25.60529       45.87401
C         24.42923       25.98968       47.35749
C         25.71067       26.59407       47.94800
C         25.56933       26.78932       49.46644
N         26.77942       27.37950       50.03794
H         22.83534       27.52164       44.87570
H         25.84264       27.18995       45.11935
H         25.35616       24.83875       45.79276
H         23.59701       25.12072       45.57549
H         24.19449       25.05441       47.91339
H         23.57980       26.68493       47.49993
H         25.91827       27.57237       47.46498
H         26.56491       25.90777       47.75862
H         25.38593       25.80158       49.94726
H         24.70132       27.44992       49.68538
H         26.66295       27.46358       51.07393
H         27.60748       26.77153       49.84080
H         26.93594       28.33245       49.63678
N         24.14013       26.46168       42.45398
C         24.32552       25.95011       41.09299
C         24.48135       27.07285       40.06456
O         24.63090       26.77010       38.88902
C         23.20296       24.95716       40.72422
C         21.81249       25.52328       40.63334
O         21.56123       26.82625       40.86045
O         20.89264       24.78114       40.32947
H         23.32618       27.06381       42.63643
H         25.26337       25.35550       41.03277
H         23.20231       24.13845       41.47783
H         23.44767       24.50331       39.73877
N         24.51856       28.38557       40.43405
C         24.77176       29.48108       39.51271
C         23.66820       29.71203       38.50321
O         23.94567       29.72415       37.31307
H         24.44541       28.63607       41.42823
H         25.74464       29.31619       39.00172
H         24.86354       30.41824       40.10328
N         22.40033       29.97488       38.92228
C         21.30834       30.39993       38.05040
C         20.77070       31.77246       38.47745
O         19.73291       32.18459       37.97806
C         20.21022       29.31313       37.97977
C         19.52258       28.93667       39.26401
O         18.65191       28.08245       39.23632
O         19.84654       29.50353       40.43871
H         22.20784       29.91809       39.92700
H         21.65979       30.51296       37.00129
H         20.67090       28.39061       37.56442
H         19.43110       29.65098       37.26125
N         21.46628       32.56573       39.34839
C         21.04724       33.89561       39.76990
C         19.88276       33.91928       40.74274
O         19.52398       35.01383       41.15910
H         22.38936       32.26017       39.67703
H         20.82107       34.51613       38.87574
H         21.89956       34.37350       40.30125
N         19.24098       32.78988       41.15871
C         18.11737       32.79177       42.09424
C         18.38676       31.87554       43.28306
O         19.41502       31.21352       43.31025
C         16.81911       32.38784       41.35274
C         16.42849       33.41960       40.28358
O         16.93039       31.10611       40.78662
H         19.54022       31.88310       40.78412
H         17.96186       33.81207       42.51092
H         15.97994       32.36477       42.07958
H         17.49333       31.16837       39.97138
H         17.21325       33.50264       39.50183
H         15.47757       33.11418       39.79872
H         16.28320       34.41665       40.75104
N         17.52028       31.83473       44.33593
C         17.70939       31.02913       45.54448
C         16.46176       30.18419       45.80011
O         15.35869       30.71620       45.75939
C         18.03731       31.96185       46.75011
C         19.37369       32.70909       46.47169
C         18.13809       31.15015       48.06126
C         19.75749       33.73775       47.53568
H         16.69915       32.46132       44.31077
H         18.58335       30.34808       45.44060
H         17.21620       32.70442       46.86212
H         19.29307       33.26614       45.51514
H         20.20276       31.97252       46.37116
H         18.94844       30.39250       47.99503
H         18.32957       31.80779       48.93159
H         17.18252       30.63281       48.28052
H         18.95950       34.50345       47.63221
H         19.94261       33.26385       48.51986
H         20.69885       34.24227       47.23003
N         16.57767       28.86940       46.14860
C         15.45147       27.97539       46.42710
C         15.36826       27.64738       47.91229
O         16.18484       28.12803       48.68093
C         15.61791       26.65975       45.61694
C         15.68201       26.92196       44.11818
O         16.79174       26.00095       46.02499
H         17.52463       28.48257       46.25677
H         14.48974       28.46085       46.14833
H         14.73950       26.00409       45.80706
H         16.72482       25.06036       45.71447
H         14.76805       27.44938       43.77360
H         16.57903       27.52981       43.89961
H         15.76499       25.95911       43.57094
N         14.39688       26.81491       48.38284
C         14.29570       26.36473       49.77321
C         15.54645       25.60598       50.19226
O         16.09612       25.88894       51.24651
C         13.06828       25.43350       49.97181
C         11.74169       26.16961       49.76661
O         13.13770       24.33649       49.09413
H         13.70734       26.45584       47.70605
H         14.16350       27.23869       50.45084
H         13.09060       25.07682       51.03015
H         12.66657       23.57962       49.53035
H         11.66203       27.01611       50.48085
H         11.64742       26.55774       48.73206
H         10.89849       25.47172       49.95631
N         16.04441       24.62494       49.39049
C         17.20485       23.79348       49.71129
C         18.40736       24.65791       50.02060
O         19.04510       24.49760       51.05122
C         17.56043       22.88417       48.50162
C         16.43340       21.91402       48.11280
C         16.82945       21.06766       46.89409
C         15.67469       20.18864       46.38295
N         15.21558       19.22594       47.38488
H         15.58193       24.49628       48.48135
H         16.98250       23.15137       50.59077
H         18.46878       22.29117       48.74929
H         17.79807       23.51654       47.61669
H         15.51525       22.47089       47.84167
H         16.21197       21.26274       48.98280
H         17.70900       20.43552       47.14369
H         17.11613       21.74705       46.06013
H         16.02959       19.63673       45.48461
H         14.82298       20.83377       46.07027
H         16.01340       18.63243       47.70771
H         14.78102       19.71821       48.19744
H         14.48645       18.61284       46.95462
N         18.76072       25.60153       49.12330
C         19.92963       26.46270       49.20810
C         19.88763       27.34168       50.44410
O         20.86770       27.36636       51.17610
C         20.00829       27.23981       47.88637
C         20.31357       26.21470       46.76076
C         20.24968       26.77707       45.39558
O         19.82987       28.02589       45.19135
O         20.61430       26.10092       44.44666
H         18.14091       25.70096       48.30436
H         20.85799       25.85044       49.27064
H         20.81035       28.00163       47.90848
H         19.04737       27.76994       47.72271
H         19.62218       25.34968       46.75870
H         21.34194       25.83117       46.92811
N         18.77322       28.04005       50.78236
C         18.69013       28.81735       51.99998
H         17.66970       29.24242       52.11043
H         18.89207       28.16561       52.87813
H         19.42753       29.64624       51.97573
H         17.94323       27.98006       50.18758
Ca        20.71156       28.83863       43.36850
O         17.24719       28.47242       41.70133
H         16.58807       29.04346       42.16991
H         16.70997       27.72359       41.34021
O         18.22178       25.58231       42.37666
H         19.15503       25.54320       42.05342
H         17.67518       25.34937       41.58468

Ca 1.0



