%chk=holoCaM.loop1.water2.frame227.chk
%nprocshared=20
%mem=10GB
%nosave
#b3lyp/svp scf=(tight,noincore,xqc) Test 
#IOP(5/87=12) Density=Current Pop=(MK,readradii) iop(6/33=2) iop(6/42=6)

holoCaM.loop1.water2.frame227 

   0  1 
C         51.06708       81.88326       49.86406
C         50.38443       82.92710       50.67724
O         51.05947       83.63150       51.41661
H         52.16008       81.89677       50.06612
H         50.65841       80.88886       50.13246
H         50.89608       82.09011       48.78793
N         49.03539       83.10733       50.57917
C         48.37844       84.15085       51.33631
C         48.47686       83.83216       52.83070
O         47.86574       82.87994       53.28960
C         46.90930       84.35865       50.89797
C         46.38175       85.61273       51.51855
O         45.22438       85.95413       51.37052
O         47.23066       86.36205       52.23404
H         48.49059       82.52999       49.92140
H         48.92822       85.08949       51.08917
H         46.29149       83.48820       51.20813
H         46.84205       84.47424       49.79498
N         49.31897       84.55674       53.61692
C         49.62934       84.21466       55.00134
C         48.50109       84.56876       55.94911
O         48.05846       83.68389       56.67497
C         50.97285       84.86588       55.39891
C         51.51144       84.36299       56.74721
C         52.99994       84.71333       56.89329
C         53.57579       84.17913       58.21069
N         55.03261       84.31376       58.23495
H         49.87040       85.29018       53.15928
H         49.82585       83.11867       55.04465
H         50.91826       85.97274       55.40988
H         51.69991       84.56179       54.61241
H         51.43584       83.25383       56.77705
H         50.90777       84.78418       57.58040
H         53.15882       85.81250       56.83167
H         53.54515       84.23049       56.05175
H         53.32244       83.10146       58.32226
H         53.12592       84.73619       59.06226
H         55.31371       85.31164       58.10107
H         55.39385       83.97305       59.15493
H         55.45227       83.72596       57.47698
N         47.97438       85.83067       56.00481
C         46.93152       86.21620       56.94739
C         45.50701       86.04770       56.42426
O         44.58397       86.32568       57.16809
C         47.22364       87.57492       57.62590
C         47.21086       88.89582       56.87650
O         47.40236       89.89829       57.54291
O         46.98497       89.08714       55.56245
H         48.32575       86.54067       55.34667
H         46.96143       85.50130       57.80621
H         48.21536       87.48927       58.12235
H         46.46767       87.69085       58.43384
N         45.25502       85.45186       55.21822
C         43.91676       85.00633       54.84306
C         42.96636       86.07657       54.35315
O         41.82695       85.72303       54.07094
H         46.03684       85.14416       54.62965
H         43.46549       84.46368       55.70276
H         44.01404       84.27351       54.01335
N         43.32930       87.37785       54.17756
C         42.41491       88.39243       53.64436
C         42.06236       88.20843       52.15171
O         41.38220       89.07029       51.61431
C         42.95898       89.81463       53.93159
C         44.23651       90.19582       53.24103
O         44.76597       91.41098       53.47140
O         44.80172       89.43096       52.48157
H         44.27816       87.66638       54.45969
H         41.46586       88.34607       54.22456
H         43.12609       89.90388       55.02714
H         42.18577       90.56144       53.64883
N         42.44758       87.11214       51.42780
C         42.07576       86.88519       50.03774
C         43.04191       87.48700       49.03316
O         42.80963       87.29377       47.84737
H         42.93458       86.34087       51.88752
H         41.03379       87.23021       49.85424
H         42.07999       85.78854       49.85330
N         44.12534       88.23283       49.40528
C         45.04589       88.85382       48.44930
C         46.51361       88.60381       48.81372
O         46.79065       88.07299       49.87887
C         44.75905       90.37384       48.37479
C         43.33971       90.67478       47.87001
O         44.97214       90.99352       49.61690
H         44.27221       88.42014       50.40131
H         44.88165       88.42577       47.43573
H         45.45776       90.83278       47.64402
H         44.22577       90.74703       50.22299
H         42.57346       90.26791       48.56441
H         43.19528       91.77330       47.80064
H         43.18647       90.22888       46.86525
N         47.51108       88.96253       47.94706
C         48.94395       88.78899       48.20478
C         49.66733       90.13640       48.09309
O         49.71043       90.72482       47.02197
C         49.52074       87.68235       47.25196
C         49.16546       86.28851       47.85116
C         51.04281       87.80132       47.02512
C         49.60715       85.08576       47.01527
H         47.24189       89.36206       47.03494
H         49.10987       88.43327       49.24330
H         49.05893       87.80387       46.24708
H         48.06613       86.21676       47.98972
H         49.64451       86.19026       48.85238
H         51.39988       87.04418       46.29946
H         51.30162       88.77743       46.56757
H         51.60062       87.68337       47.96634
H         49.13437       85.11714       46.01278
H         50.71045       85.04203       46.91011
H         49.29754       84.15167       47.53160
N         50.27398       90.66293       49.19840
C         51.08071       91.88613       49.23603
C         52.46509       91.65680       48.63188
O         52.75518       90.56339       48.17673
C         51.28908       92.33433       50.71697
C         49.98171       92.72899       51.40988
O         51.98278       91.34210       51.43535
H         50.14827       90.15878       50.08120
H         50.55352       92.70654       48.70250
H         51.89988       93.25720       50.75909
H         51.33818       90.80330       51.96103
H         50.19776       93.09052       52.43790
H         49.47339       93.53795       50.84425
H         49.32180       91.85034       51.48605
N         53.40105       92.65040       48.68280
C         54.81831       92.47286       48.36432
C         55.44879       91.42300       49.28275
O         56.03560       90.47595       48.77809
C         55.58377       93.82163       48.50403
C         55.13525       94.83538       47.44364
O         55.38980       94.36635       49.78586
H         53.10178       93.57292       49.02618
H         54.92993       92.13272       47.30982
H         56.66888       93.61934       48.34470
H         56.07174       95.07621       49.91183
H         55.70847       95.77964       47.56134
H         55.33127       94.43401       46.42727
H         54.05511       95.07075       47.53735
N         55.36277       91.53121       50.64350
C         55.97751       90.58902       51.58872
C         55.45817       89.14780       51.48582
O         56.00846       88.29621       52.17064
C         55.81198       91.08713       53.05439
C         54.33580       91.18053       53.47522
C         54.12201       91.53189       54.94548
C         52.61087       91.58324       55.23742
N         52.34855       91.86810       56.64527
H         54.86556       92.34843       51.01804
H         57.06771       90.56222       51.36783
H         56.28916       92.08449       53.16906
H         56.34000       90.38052       53.73240
H         53.85964       90.20067       53.30471
H         53.82971       91.95447       52.87008
H         54.58381       92.51716       55.17207
H         54.59690       90.75239       55.58014
H         52.14529       90.60598       54.97432
H         52.13623       92.37026       54.60809
H         52.75934       91.11505       57.24339
H         52.75563       92.79487       56.90652
H         51.31408       91.89425       56.79798
N         54.42424       88.79290       50.67033
C         53.91721       87.42756       50.54053
C         54.28573       86.85636       49.17674
O         54.58169       85.67134       49.10547
C         52.39101       87.39069       50.80070
C         52.05879       87.85764       52.22776
C         50.58600       87.94448       52.51944
O         49.82468       88.48813       51.74070
O         50.12526       87.58139       53.72669
H         53.96088       89.51621       50.11188
H         54.38873       86.75445       51.29109
H         52.00091       86.36071       50.64790
H         51.88948       88.07485       50.08664
H         52.45729       88.87278       52.34456
H         52.55012       87.20427       52.98184
N         54.37188       87.64025       48.06451
C         54.80910       87.13112       46.78346
H         55.83910       86.72339       46.87116
H         54.11852       86.33867       46.42921
H         54.82407       87.95469       46.03645
H         54.15082       88.63799       48.11592
Ca        46.91156       87.98421       53.65171
O         46.94611       91.34336       51.46566
H         47.19320       91.71902       50.58298
H         46.93828       92.12760       52.06939
O         48.42337       91.40430       54.24818
H         48.92174       90.85045       54.89999
H         47.55175       91.58301       54.68349

Ca 1.0



