%chk=holoCaM-CaMKII.loop4.water1.frame428.chk
%nprocshared=20
%mem=10GB
%nosave
#b3lyp/svp scf=(tight,noincore,xqc) Test 
#IOP(5/87=12) Density=Current Pop=(MK,readradii) iop(6/33=2) iop(6/42=6)

holoCaM-CaMKII.loop4.water1.frame428 

   -3  1 
C         75.26763       82.73462       38.34707
C         74.20097       83.55413       39.00616
O         73.15669       83.75482       38.40358
H         76.14883       82.60769       39.01049
H         74.85772       81.72739       38.11761
H         75.58946       83.22373       37.40598
N         74.37204       84.02128       40.27308
C         73.30841       84.69775       40.99659
C         73.01684       86.08330       40.43115
O         73.95990       86.82569       40.19325
C         73.65222       84.81783       42.49396
C         72.39757       85.02422       43.29022
O         72.45054       85.12775       44.50328
O         71.20331       84.94250       42.66943
H         75.24953       83.79917       40.76884
H         72.42159       84.03062       40.91502
H         74.39819       85.62500       42.66632
H         74.07945       83.85974       42.86215
N         71.73198       86.51384       40.23903
C         71.39087       87.79306       39.62074
C         70.71059       88.76611       40.59568
O         70.82487       89.96107       40.35776
C         70.50852       87.52757       38.35720
C         71.18842       86.46885       37.44391
C         70.21604       88.82650       37.58100
C         70.38607       86.09269       36.19806
H         70.95659       85.89021       40.49130
H         72.32594       88.29533       39.28445
H         69.53616       87.10482       38.69718
H         71.30856       85.52975       38.02257
H         72.19624       86.81812       37.13156
H         69.54145       88.63208       36.72366
H         69.68164       89.56183       38.21371
H         71.15871       89.27920       37.20739
H         69.36332       85.76823       36.47111
H         70.31637       86.94150       35.49102
H         70.89767       85.25644       35.67565
N         69.97551       88.36153       41.68049
C         69.26647       89.30717       42.55738
C         69.78229       89.31130       44.00282
O         69.24387       90.05783       44.80870
C         67.73554       89.11325       42.43160
C         67.18415       87.80831       42.92552
O         65.99250       87.57460       42.80227
O         67.97219       86.90374       43.52255
H         69.87901       87.35586       41.87436
H         69.43268       90.34829       42.20451
H         67.47163       89.21571       41.35552
H         67.21623       89.92678       42.98373
N         70.89154       88.60711       44.37277
C         71.56989       88.77871       45.65380
C         70.86189       88.19116       46.85752
O         70.64373       88.89945       47.82948
H         71.37097       88.02114       43.67464
H         71.79014       89.85745       45.81413
H         72.54786       88.25382       45.59354
N         70.55337       86.86819       46.88087
C         70.06942       86.13537       48.05922
C         70.95368       84.90498       48.33532
O         70.58896       84.10156       49.18282
C         68.55794       85.78596       47.90956
C         68.23001       84.97189       46.70027
O         67.07599       84.79321       46.34715
O         69.24236       84.55153       45.94992
H         70.71781       86.34676       46.00975
H         70.11437       86.77577       48.96700
H         68.01458       86.75074       47.81324
H         68.18148       85.26621       48.81624
N         72.15994       84.72323       47.70681
C         73.06300       83.61229       47.98041
C         72.67847       82.29299       47.33150
O         73.40677       81.33424       47.53579
H         72.51931       85.45160       47.07541
H         73.17940       83.49075       49.07965
H         74.06576       83.86351       47.56973
N         71.57903       82.15963       46.53327
C         71.19871       80.90295       45.88414
C         71.05792       81.07624       44.38101
O         71.11609       82.19300       43.89249
C         69.92934       80.32746       46.56956
C         68.71892       81.27356       46.75433
C         67.89236       81.55067       45.52076
N         66.56477       81.28313       45.51789
O         68.39894       82.05715       44.53543
H         70.98044       82.97437       46.38101
H         72.00080       80.14595       46.02254
H         70.25781       80.07867       47.60272
H         69.60796       79.37543       46.09477
H         69.05148       82.22753       47.20662
H         68.05119       80.80236       47.50645
H         66.09972       80.88149       46.34481
H         65.98803       81.50623       44.69514
N         70.90587       79.97925       43.57836
C         70.69908       80.06149       42.13537
C         69.42688       79.29793       41.81187
O         69.47113       78.07566       41.77593
C         71.93288       79.48916       41.36933
C         71.72919       79.49780       39.84311
C         73.20558       80.28657       41.70157
H         70.93717       79.04349       44.00892
H         70.57310       81.11646       41.82521
H         72.09538       78.43483       41.68665
H         72.61578       79.05627       39.33775
H         70.84821       78.88970       39.55128
H         71.59290       80.53360       39.47000
H         73.09733       81.34734       41.38719
H         73.41958       80.25569       42.78990
H         74.08153       79.84993       41.17435
N         68.23166       79.94299       41.64686
C         67.00010       79.19556       41.38630
C         67.01069       78.59281       39.98559
O         67.95644       78.81741       39.24672
C         65.70784       80.00853       41.67782
C         65.28006       81.05769       40.67781
N         65.96511       82.20635       40.50271
O         64.24529       80.88441       40.05087
H         68.20245       80.95923       41.79040
H         66.96469       78.36786       42.13040
H         65.76958       80.46121       42.68616
H         64.87868       79.26985       41.72887
H         66.81142       82.41502       41.04223
H         65.61405       82.91476       39.84124
N         65.98449       77.80572       39.55765
C         65.93067       77.17574       38.23843
C         65.99058       78.18886       37.10846
O         66.72270       77.95457       36.15790
C         64.64825       76.33406       38.10667
C         64.54670       75.68061       36.74680
C         65.51841       74.76115       36.31167
C         63.48101       76.00683       35.89313
C         65.42344       74.18284       35.04220
C         63.38763       75.42674       34.62639
C         64.35946       74.51254       34.19595
O         64.28108       73.94786       32.97446
H         65.20462       77.63335       40.20921
H         66.79878       76.48699       38.13615
H         63.77201       76.99749       38.27914
H         64.63934       75.54643       38.89073
H         66.35192       74.49496       36.94952
H         62.72498       76.71674       36.20463
H         66.17911       73.47941       34.71521
H         62.56084       75.69202       33.98024
H         63.56005       74.14994       32.36115
N         65.24030       79.32346       37.12875
C         65.32313       80.33528       36.07817
C         66.75854       80.82877       35.93486
O         67.26883       80.82787       34.82297
C         64.34120       81.50199       36.33893
C         62.87654       81.02509       36.25729
C         61.91033       82.16628       36.39719
O         61.88038       82.89584       37.52828
O         61.13299       82.42579       35.49163
H         64.62304       79.48336       37.93694
H         65.02371       79.88638       35.10413
H         64.48899       82.26763       35.54444
H         64.54547       81.97757       37.32370
H         62.65903       80.28227       37.05227
H         62.71076       80.53581       35.27124
N         67.48858       81.21616       37.01993
C         68.88361       81.66062       36.92104
C         69.82439       80.56901       36.41344
O         70.89994       80.90212       35.93517
C         69.38361       82.17928       38.28531
C         68.60955       83.44205       38.69606
C         68.95030       83.94853       40.06561
O         68.47856       85.00759       40.44625
O         69.73237       83.23784       40.89645
H         67.03099       81.18796       37.94388
H         68.92257       82.49845       36.18913
H         70.46160       82.45062       38.21932
H         69.26964       81.37156       39.04277
H         67.52010       83.26950       38.66789
H         68.83943       84.22802       37.95808
N         69.50441       79.25074       36.50000
C         70.35188       78.19263       35.99491
H         71.34509       78.22313       36.48895
H         69.88270       77.20541       36.20202
H         70.47225       78.29679       34.89574
H         68.63339       78.98066       36.95472
Ca        69.33639       84.63358       43.77662
O         66.26428       84.11808       43.11789
H         66.32868       84.69583       42.31637
H         65.43756       84.41647       43.57308

Ca 1.0



