%chk=holoCaM-CaMKII.loop1.water2.frame41.chk
%nprocshared=20
%mem=10GB
%nosave
#b3lyp/svp scf=(tight,noincore,xqc) Test 
#IOP(5/87=12) Density=Current Pop=(MK,readradii) iop(6/33=2) iop(6/42=6)

holoCaM-CaMKII.loop1.water2.frame41 

   0  1 
C         -4.91851       73.89918       18.21208
C         -6.13765       74.32950       18.97705
O         -6.53749       73.63523       19.89724
H         -4.04779       73.83411       18.89606
H         -5.10216       72.90567       17.75152
H         -4.67522       74.61621       17.39840
N         -6.77633       75.48412       18.65222
C         -7.99565       75.95418       19.30762
C         -9.13257       74.98564       18.97937
O         -9.51207       74.89963       17.82039
C         -8.24713       77.39332       18.79842
C         -9.45092       78.16199       19.25530
O        -10.22578       78.57801       18.41001
O         -9.61643       78.56992       20.52659
H         -6.36441       76.05669       17.89786
H         -7.81948       75.99958       20.40262
H         -8.29134       77.35059       17.68748
H         -7.36159       78.00841       19.07129
N         -9.68019       74.18618       19.94651
C        -10.71320       73.17645       19.70487
C        -11.98597       73.55924       20.42768
O        -13.01504       73.64484       19.77021
C        -10.24341       71.75981       20.10460
C         -8.99997       71.25954       19.33464
C         -9.07481       71.37984       17.79584
C        -10.25801       70.65627       17.13033
N        -10.16201       69.20414       17.26096
H         -9.33408       74.27797       20.90633
H        -10.97473       73.13672       18.62777
H        -11.07772       71.05235       19.90746
H        -10.02372       71.71588       21.19451
H         -8.80420       70.20505       19.62350
H         -8.12523       71.84462       19.66717
H         -8.12468       71.00772       17.35581
H         -9.13746       72.45013       17.52720
H        -10.25188       70.91540       16.04818
H        -11.22402       71.01372       17.54686
H        -10.20355       68.91974       18.26475
H        -10.96619       68.76760       16.75490
H         -9.27132       68.86782       16.82769
N        -11.98610       73.91758       21.74837
C        -13.16219       74.52795       22.38165
C        -13.65093       75.77522       21.61124
O        -14.76555       76.20842       21.86629
C        -12.91762       74.87045       23.88177
C        -11.75371       75.80857       24.09123
O        -11.50937       76.26990       25.19416
O        -10.97143       76.09599       23.03826
H        -11.11443       73.81385       22.28857
H        -13.98411       73.78031       22.33286
H        -12.72619       73.94243       24.46198
H        -13.84155       75.34051       24.28549
N        -12.91115       76.35473       20.61388
C        -13.42578       77.35455       19.69243
C        -13.76320       78.66554       20.34675
O        -14.89465       79.11468       20.23575
H        -11.95203       76.03369       20.42723
H        -14.30969       76.93887       19.16148
H        -12.64873       77.56047       18.92454
N        -12.80106       79.35305       21.01553
C        -12.99749       80.66288       21.62354
C        -12.04121       81.71388       21.04672
O        -12.00207       82.81685       21.57369
C        -12.90353       80.53004       23.15865
C        -11.57993       80.09626       23.72151
O        -11.47242       79.90328       25.04839
O        -10.60748       79.91922       23.01021
H        -11.87902       78.91361       21.10364
H        -14.02779       81.03376       21.42808
H        -13.66367       79.78284       23.47522
H        -13.16822       81.50271       23.62479
N        -11.30221       81.47579       19.91989
C        -10.46727       82.48427       19.27849
C         -9.09711       82.66751       19.90232
O         -8.35407       83.49533       19.39132
H        -11.42224       80.58795       19.41639
H        -11.01826       83.44932       19.22820
H        -10.27488       82.16496       18.23138
N         -8.67311       81.94597       20.97846
C         -7.33418       82.06918       21.55624
C         -6.66788       80.70800       21.72085
O         -7.30880       79.68340       21.52976
C         -7.40579       82.81446       22.91266
C         -7.65941       84.31639       22.73145
O         -8.37696       82.24631       23.75401
H         -9.32351       81.28279       21.41752
H         -6.66977       82.65011       20.87853
H         -6.42316       82.74372       23.42606
H         -9.27450       82.52232       23.42770
H         -7.68035       84.81197       23.72533
H         -6.83480       84.76530       22.13687
H         -8.62246       84.50484       22.21365
N         -5.34621       80.63781       22.05333
C         -4.60963       79.39172       22.25109
C         -3.99935       79.42054       23.64800
O         -3.32076       80.38732       23.97325
C         -3.50267       79.21167       21.16296
C         -4.09349       79.36767       19.73489
C         -2.83858       77.82530       21.32430
C         -3.05343       79.24425       18.61542
H         -4.82052       81.52149       22.15221
H         -5.29100       78.51754       22.15323
H         -2.73007       80.00077       21.30018
H         -4.53990       80.38072       19.64279
H         -4.89505       78.61663       19.56420
H         -3.58278       77.01604       21.15543
H         -1.99778       77.68542       20.61686
H         -2.41061       77.70659       22.33694
H         -3.53718       79.44613       17.63660
H         -2.23353       79.97890       18.76338
H         -2.62779       78.22160       18.56448
N         -4.15231       78.37451       24.50794
C         -3.54917       78.33136       25.84041
C         -2.27747       77.51439       25.80554
O         -1.92507       76.99372       24.76227
C         -4.53405       77.73264       26.88611
C         -5.79968       78.56931       27.05304
O         -4.85234       76.39546       26.58113
H         -4.62492       77.53156       24.16058
H         -3.25829       79.35469       26.16631
H         -4.04910       77.72870       27.88395
H         -5.56738       76.38887       25.89400
H         -5.54194       79.60383       27.36243
H         -6.34803       78.58857       26.09513
H         -6.45128       78.11364       27.82962
N         -1.52111       77.36418       26.92311
C         -0.33070       76.52217       26.96646
C         -0.71961       75.07562       26.67805
O         -0.08229       74.43360       25.85608
C          0.35253       76.64720       28.34772
C          1.68546       75.89255       28.38748
O          0.60494       78.00563       28.60827
H         -1.81556       77.85269       27.78286
H          0.40049       76.88193       26.20645
H         -0.33760       76.23163       29.12098
H          0.54796       78.13072       29.59151
H          1.53842       74.80966       28.19689
H          2.37908       76.30378       27.62157
H          2.15439       76.01323       29.38641
N         -1.80943       74.53205       27.29453
C         -2.29355       73.16664       27.08586
C         -2.49344       72.86658       25.61053
O         -1.92600       71.90017       25.11990
C         -3.63918       72.95583       27.82938
C         -3.49014       73.02506       29.36151
C         -4.82293       72.85751       30.11350
C         -5.77944       74.04962       29.92151
N         -6.98722       73.88624       30.73145
H         -2.34674       75.14825       27.92164
H         -1.54805       72.44262       27.48351
H         -4.04634       71.95123       27.57701
H         -4.36265       73.71801       27.47280
H         -3.02957       73.98096       29.68506
H         -2.81153       72.20022       29.66910
H         -4.58576       72.78607       31.19733
H         -5.31824       71.91096       29.80512
H         -6.07405       74.14963       28.85567
H         -5.26317       74.98598       30.23080
H         -6.73604       73.81325       31.74440
H         -7.60475       74.71993       30.59938
H         -7.50698       73.02882       30.43435
N         -3.29405       73.65416       24.84543
C         -3.56411       73.39982       23.43210
C         -2.27161       73.43217       22.63727
O         -1.92891       72.43594       22.01571
C         -4.58974       74.42419       22.89824
C         -5.94107       74.24902       23.61846
C         -6.94943       75.26565       23.19658
O         -6.71366       76.57795       23.36768
O         -8.02045       74.90175       22.75116
H         -3.72526       74.47078       25.29934
H         -4.01702       72.38828       23.32014
H         -4.74231       74.27335       21.80778
H         -4.20100       75.45317       23.05487
H         -5.82722       74.35281       24.71339
H         -6.33317       73.22829       23.41372
N         -1.48137       74.53545       22.64809
C         -0.20352       74.59426       21.97646
H          0.46883       73.80562       22.37770
H         -0.33832       74.45581       20.88435
H          0.27033       75.58293       22.16000
H         -1.78703       75.35566       23.17386
Ca        -9.32024       77.46175       22.44246
O         -8.07027       80.03328       25.24228
H         -7.64092       80.60822       25.92455
H         -9.02840       80.25779       25.31021
O         -8.74334       77.05576       26.03916
H         -9.16415       77.49689       26.81964
H         -8.90757       76.08970       26.18085

Ca 1.0



