%chk=holoCaM-CaMKII.loop2.water2.frame478.chk
%nprocshared=20
%mem=10GB
%nosave
#b3lyp/svp scf=(tight,noincore,xqc) Test 
#IOP(5/87=12) Density=Current Pop=(MK,readradii) iop(6/33=2) iop(6/42=6)

holoCaM-CaMKII.loop2.water2.frame478 

   -2  1 
C         63.07427       65.05242       76.53058
C         63.08481       65.07626       78.03596
O         63.99201       64.52256       78.63863
H         63.99478       65.54264       76.14744
H         63.03073       64.00924       76.15919
H         62.20224       65.60810       76.12069
N         62.11719       65.75421       78.70676
C         62.10825       65.95243       80.15117
C         61.81942       64.68128       80.94286
O         60.80672       64.04158       80.69508
C         61.05230       67.01658       80.49297
C         61.04912       67.31494       81.95328
O         62.08059       67.66707       82.49994
O         59.91762       67.16604       82.66730
H         61.39307       66.23136       78.14612
H         63.09345       66.37482       80.45263
H         60.04016       66.67987       80.17931
H         61.29705       67.95354       79.94823
N         62.63406       64.32267       81.98270
C         62.37911       63.19081       82.87112
C         62.21941       63.59260       84.34864
O         61.92596       62.70570       85.13881
C         63.53698       62.19372       82.73571
H         63.47141       64.88996       82.16153
H         61.44224       62.67424       82.56997
H         63.63283       61.86193       81.67987
H         64.49461       62.66829       83.04432
H         63.36566       61.29631       83.36794
N         62.44366       64.86312       84.81449
C         62.42961       65.21061       86.24764
C         61.69702       66.51977       86.59995
O         61.57256       66.79998       87.78475
C         63.87959       65.27404       86.76787
C         64.75230       66.07965       85.86029
O         65.75492       65.57812       85.37650
O         64.39645       67.31733       85.49239
H         62.76893       65.57728       84.15116
H         61.91666       64.41568       86.83187
H         64.30118       64.24630       86.81346
H         63.90440       65.69167       87.79746
N         61.18421       67.36284       85.66245
C         60.42373       68.57260       85.97020
C         61.18667       69.72602       86.61994
O         60.54494       70.73072       86.89304
H         61.27068       67.10528       84.68107
H         59.56752       68.29333       86.62216
H         60.00352       68.97140       85.02128
N         62.52075       69.68543       86.90513
C         63.22689       70.78120       87.58205
C         63.24363       72.10368       86.80394
O         63.46511       73.13033       87.43047
C         64.67668       70.37082       87.95323
C         65.53846       70.04158       86.75994
N         66.83199       69.68482       86.91281
O         65.06619       70.08850       85.64154
H         63.03862       68.83001       86.68981
H         62.68667       70.96733       88.53660
H         64.64375       69.47523       88.60951
H         65.15864       71.19890       88.51584
H         67.26031       69.63062       87.84649
H         67.40670       69.46507       86.08646
N         63.07150       72.15775       85.45069
C         63.03966       73.39762       84.68183
C         64.17426       73.54889       83.68015
O         64.13856       74.52225       82.94004
H         62.94343       71.28181       84.93696
H         63.06963       74.28945       85.34372
H         62.07575       73.42483       84.13043
N         65.22929       72.68324       83.61563
C         66.35761       72.85183       82.70266
C         66.57628       71.62854       81.82199
O         66.10787       70.54427       82.13934
C         67.66172       73.13142       83.51445
C         67.57639       74.46658       84.25479
O         67.92332       72.13205       84.47521
H         65.27055       71.90186       84.26949
H         66.17582       73.71020       82.01925
H         68.52665       73.20325       82.81664
H         67.74932       71.24105       84.07980
H         68.53173       74.65648       84.79108
H         67.40406       75.29850       83.54058
H         66.75605       74.44773       85.00326
N         67.35709       71.74650       80.71109
C         67.87377       70.61716       79.94413
C         69.08158       70.09355       80.68753
O         69.94632       70.88846       81.03572
C         68.29054       71.07268       78.51195
C         67.04250       71.55303       77.72893
C         68.99916       69.92707       77.74804
C         67.38972       72.26910       76.42257
H         67.71738       72.68502       80.47562
H         67.10215       69.82216       79.82451
H         69.00690       71.91869       78.61230
H         66.47281       72.28313       78.34101
H         66.37318       70.68821       77.52072
H         69.91931       69.60553       78.27740
H         68.32809       69.04698       77.64446
H         69.33020       70.24685       76.74135
H         66.45420       72.60227       75.92670
H         68.01033       73.16453       76.64092
H         67.93183       71.61233       75.71478
N         69.24115       68.76145       80.91038
C         70.39998       68.21377       81.60800
C         71.25915       67.46477       80.62889
O         70.88058       67.35493       79.46864
C         69.96961       67.25759       82.73246
C         68.84821       67.80258       83.54161
O         67.68183       68.02570       82.91391
O         68.94367       67.93776       84.75022
H         68.53818       68.10681       80.53364
H         71.00495       69.03617       82.04883
H         70.84131       67.00245       83.37453
H         69.57235       66.31960       82.28698
N         72.45462       66.94090       81.00552
C         73.29268       66.23308       80.05793
C         72.68445       64.88606       79.66805
O         72.66423       64.60861       78.48040
C         74.75330       66.12663       80.53047
C         75.64885       65.71670       79.38200
C         75.75646       66.53674       78.23796
C         76.37997       64.52129       79.43398
C         76.56448       66.15698       77.16632
C         77.19330       64.14763       78.35839
C         77.28232       64.96228       77.22526
H         72.79725       67.10573       81.96581
H         73.33301       66.87495       79.15163
H         74.83745       65.42907       81.38635
H         75.09929       67.12595       80.87524
H         75.21506       67.47213       78.16703
H         76.31663       63.87800       80.30200
H         76.63206       66.79098       76.29085
H         77.75334       63.22381       78.40174
H         77.90840       64.67024       76.39278
N         72.13634       64.00083       80.57081
C         71.48495       62.75335       80.17388
C         70.26069       62.93332       79.28190
O         69.75436       61.93464       78.78697
C         71.02313       62.13594       81.49980
C         72.03891       62.68108       82.47722
C         72.16451       64.12824       82.00992
H         72.26092       62.13220       79.67255
H         70.04755       62.58972       81.79679
H         70.90093       61.03152       81.47970
H         71.76412       62.56413       83.54700
H         73.00642       62.16333       82.28871
H         71.28180       64.71896       82.32999
H         73.09724       64.56000       82.41642
N         69.71870       64.16614       79.05120
C         68.56213       64.40941       78.19689
C         68.98900       65.07435       76.89545
O         68.20244       65.07884       75.96009
C         67.56149       65.33936       78.91502
C         67.08049       64.79784       80.27057
C         66.24722       65.79803       81.02862
O         65.82179       65.49245       82.26686
O         65.98382       66.89447       80.55972
H         70.13974       64.98589       79.50210
H         68.07850       63.44255       77.93350
H         66.68290       65.53712       78.26194
H         68.08207       66.30629       79.09318
H         67.95799       64.56521       80.90894
H         66.49140       63.86872       80.11645
N         70.20813       65.67561       76.76920
C         70.69535       66.29682       75.56046
H         71.65974       65.82080       75.28106
H         69.98667       66.19101       74.71585
H         70.87672       67.37487       75.75530
H         70.83843       65.72959       77.56898
Ca        65.81777       68.17679       84.04008
O         62.75733       70.36256       82.64540
H         62.18995       71.10563       82.32338
H         62.21240       69.93027       83.34980
O         64.11185       69.22592       80.36355
H         63.25478       69.56797       80.00609
H         64.63176       68.97360       79.56057

Ca 1.0



