%chk=holoCaM.loop2.water1.frame52.chk
%nprocshared=20
%mem=10GB
%nosave
#b3lyp/svp scf=(tight,noincore,xqc) Test 
#IOP(5/87=12) Density=Current Pop=(MK,readradii) iop(6/33=2) iop(6/42=6)

holoCaM.loop2.water1.frame52 

   -2  1 
C         73.76501      114.11069       29.50123
C         72.74649      114.99797       28.84642
O         71.84396      114.48330       28.20131
H         74.51372      114.70235       30.06921
H         73.25050      113.43216       30.21651
H         74.28885      113.50359       28.73629
N         72.79320      116.34838       29.02014
C         71.72995      117.22491       28.55388
C         71.73946      117.41360       27.03607
O         72.72641      117.88914       26.49267
C         71.80192      118.58670       29.27364
C         70.52014      119.35502       29.10719
O         69.53486      118.84919       28.34199
O         70.36926      120.41802       29.67743
H         73.53989      116.74220       29.61363
H         70.77777      116.76184       28.89176
H         72.67622      119.17701       28.91835
H         71.91846      118.40647       30.36376
N         70.64538      117.07052       26.29890
C         70.53385      117.23407       24.85345
C         70.20813      118.67083       24.45932
O         70.94916      119.24454       23.67385
C         69.44721      116.29672       24.31106
H         69.85978      116.63471       26.79213
H         71.48179      116.90319       24.37274
H         68.45135      116.53376       24.74031
H         69.39019      116.37362       23.20424
H         69.70199      115.24686       24.57293
N         69.09108      119.30184       24.93760
C         68.68174      120.64704       24.51832
C         69.76978      121.65621       24.82986
O         70.21761      122.37170       23.94547
C         67.40471      121.13389       25.26776
C         66.22417      120.20326       25.21685
O         65.61162      120.03030       24.17651
O         65.83849      119.56915       26.34654
H         68.50254      118.79299       25.61203
H         68.46367      120.63548       23.42752
H         67.09294      122.13470       24.89637
H         67.64548      121.29690       26.33126
N         70.17123      121.79755       26.12020
C         71.03754      122.84356       26.61843
C         70.19457      123.79996       27.43695
O         70.24050      124.99424       27.17881
H         69.77282      121.15601       26.81816
H         71.53262      123.40466       25.79464
H         71.83013      122.37824       27.24242
N         69.34144      123.32846       28.39584
C         68.42851      124.16492       29.16781
C         68.65105      124.02697       30.67614
O         67.96249      124.70064       31.42875
C         66.97088      123.85613       28.74222
C         66.45872      122.46903       29.05316
N         65.22961      122.09886       28.62378
O         67.13739      121.67752       29.68708
H         69.28906      122.31614       28.55188
H         68.59904      125.23409       28.91647
H         66.90910      124.00193       27.64030
H         66.28325      124.58621       29.21913
H         64.64200      122.75071       28.08408
H         64.86537      121.15526       28.81704
N         69.61167      123.20173       31.18922
C         70.00120      123.17657       32.58964
C         69.41625      122.03706       33.40029
O         69.90306      121.83920       34.50563
H         70.22470      122.68233       30.55105
H         69.81742      124.15279       33.08576
H         71.10518      123.03734       32.59993
N         68.37891      121.26187       32.96666
C         67.85721      120.12575       33.73432
C         67.89536      118.85355       32.89648
O         68.28166      118.91335       31.73443
C         66.44160      120.42799       34.29182
C         66.45915      121.58545       35.30379
O         65.51715      120.67350       33.26423
H         67.93206      121.48476       32.06636
H         68.50552      119.92614       34.61618
H         66.08421      119.54252       34.85915
H         65.68882      121.58180       32.90345
H         67.15008      121.35009       36.14206
H         66.78947      122.53107       34.82497
H         65.44178      121.73521       35.72368
N         67.55449      117.64834       33.44352
C         67.67934      116.37617       32.73581
C         66.31002      115.72123       32.58865
O         65.71039      115.32642       33.57996
C         68.72019      115.47853       33.47569
C         70.12208      116.14678       33.38604
C         68.75830      114.04731       32.90247
C         71.19918      115.47272       34.23681
H         67.23815      117.61751       34.42564
H         68.07157      116.54656       31.71390
H         68.41572      115.40482       34.54423
H         70.05966      117.19612       33.74368
H         70.45611      116.16803       32.32429
H         67.76828      113.55859       33.00547
H         69.04778      114.05640       31.83144
H         69.46749      113.40888       33.46608
H         70.90553      115.49236       35.30758
H         71.38577      114.42790       33.92071
H         72.15305      116.03132       34.12367
N         65.75872      115.59104       31.34593
C         64.47277      114.95490       31.06183
C         64.54754      113.44224       31.22417
O         65.60683      112.91471       31.51766
C         64.05224      115.26328       29.60472
C         63.86828      116.73425       29.37224
O         64.55059      117.31792       28.54559
O         62.92938      117.41108       30.06066
H         66.26782      116.00411       30.55435
H         63.70010      115.36797       31.74733
H         63.08346      114.78199       29.36451
H         64.82256      114.86144       28.90945
N         63.43173      112.68025       31.03675
C         63.41365      111.22178       31.11513
C         64.20184      110.57622       29.96837
O         65.10069      109.80958       30.28572
C         61.95015      110.73179       31.26760
C         61.74942      109.23501       31.38454
C         62.54715      108.44109       32.23079
C         60.69811      108.62462       30.67400
C         62.30368      107.06844       32.34932
C         60.44638      107.25665       30.81269
C         61.25074      106.47825       31.64663
H         62.54071      113.16754       30.85796
H         63.90350      110.92881       32.06994
H         61.29183      111.13354       30.47582
H         61.57999      111.17794       32.21591
H         63.35949      108.87172       32.79853
H         60.05152      109.21101       30.03268
H         62.92612      106.46271       32.99505
H         59.62169      106.80162       30.27883
H         61.05416      105.41906       31.75276
N         63.98041      110.82251       28.63296
C         64.78014      110.24586       27.54989
C         66.27027      110.44455       27.75033
O         67.03837      109.50535       27.60041
C         64.33711      111.03509       26.30675
C         62.89779      111.33806       26.62871
C         62.98697      111.73250       28.09942
H         64.52445      109.16813       27.43999
H         64.85036      112.02383       26.26749
H         64.52012      110.51515       25.34163
H         62.41580      112.09603       25.97505
H         62.33009      110.38260       26.55460
H         63.36103      112.77001       28.22146
H         61.98096      111.61984       28.53181
N         66.72698      111.67093       28.12246
C         68.12771      112.01261       28.33998
C         68.73732      111.09214       29.38043
O         69.75500      110.47256       29.10314
C         68.24454      113.49435       28.77350
C         67.72729      114.44889       27.67386
C         67.77063      115.89231       28.07227
O         68.30196      116.27885       29.24548
O         67.32784      116.73381       27.30844
H         66.01514      112.39555       28.29026
H         68.69515      111.89563       27.38908
H         69.30943      113.73538       28.98310
H         67.65963      113.65296       29.70672
H         66.67139      114.22846       27.42844
H         68.32970      114.31564       26.74982
N         68.13633      110.91499       30.58622
C         68.64876      110.00799       31.58787
H         69.65309      110.33983       31.92268
H         67.96435      109.98994       32.46325
H         68.71133      108.97961       31.17128
H         67.26356      111.41241       30.78700
Ca        67.44478      119.54889       27.94028
O         65.11909      119.46190       30.77095
H         64.34883      120.05094       30.97437
H         64.96785      118.65645       31.32565

Ca 1.0



