%chk=holoCaM-CaMKII.loop2.water2.frame240.chk
%nprocshared=20
%mem=10GB
%nosave
#b3lyp/svp scf=(tight,noincore,xqc) Test 
#IOP(5/87=12) Density=Current Pop=(MK,readradii) iop(6/33=2) iop(6/42=6)

holoCaM-CaMKII.loop2.water2.frame240 

   -2  1 
C         87.38973       37.96371       35.93451
C         88.50120       38.60653       36.71744
O         88.43271       38.63434       37.93692
H         86.43297       38.49159       36.12247
H         87.59619       37.98647       34.84238
H         87.28984       36.90061       36.24041
N         89.57926       39.12389       36.06975
C         90.74667       39.67623       36.74624
C         90.42039       40.91058       37.57782
O         89.87184       41.86814       37.05075
C         91.82633       40.00812       35.70245
C         93.07548       40.49030       36.36300
O         93.53834       41.58477       36.08638
O         93.67488       39.71757       37.28388
H         89.59316       39.06953       35.03893
H         91.16493       38.88500       37.40789
H         91.45313       40.77178       34.98563
H         92.07503       39.08385       35.13726
N         90.79154       40.95355       38.89122
C         90.55740       42.07922       39.78640
C         91.85576       42.64810       40.37033
O         91.75308       43.52801       41.21538
C         89.64860       41.59811       40.92498
H         91.26892       40.13434       39.29034
H         90.02784       42.90523       39.26261
H         90.14146       40.78679       41.50322
H         89.40823       42.43420       41.61682
H         88.69341       41.21147       40.51003
N         93.10387       42.23197       39.97897
C         94.32519       42.73624       40.62808
C         95.65014       42.55119       39.86216
O         96.66005       43.01041       40.37969
C         94.44648       42.12234       42.04525
C         94.58079       40.61718       42.05553
O         94.56803       39.96806       41.02106
O         94.70957       39.97607       43.23179
H         93.16706       41.53794       39.22994
H         94.23005       43.84159       40.72428
H         93.55350       42.38975       42.64709
H         95.33068       42.55870       42.55833
N         95.74928       41.96839       38.63312
C         96.98857       41.92428       37.86890
C         98.06760       40.99919       38.40145
O         99.13227       40.98527       37.79866
H         94.91658       41.62633       38.15846
H         97.39121       42.95693       37.78707
H         96.75889       41.57352       36.83841
N         97.89322       40.18019       39.48090
C         98.94372       39.27628       39.96008
C         99.25154       38.09627       39.01703
O        100.06982       37.26506       39.38619
C         98.65835       38.80934       41.40708
C         97.45236       37.94334       41.64344
N         97.20651       37.51340       42.90267
O         96.70452       37.62676       40.73085
H         97.00791       40.22420       40.00295
H         99.88097       39.86727       40.06500
H         98.55026       39.71302       42.04660
H         99.54515       38.24674       41.77211
H         97.83181       37.77474       43.67867
H         96.40126       36.91866       43.11684
N         98.70108       37.98373       37.77037
C         99.05671       36.94588       36.81291
C         98.37777       35.61006       37.03557
O         98.60194       34.72544       36.22080
H         98.08323       38.71780       37.41638
H        100.16222       36.83281       36.77047
H         98.72403       37.28159       35.80656
N         97.53370       35.37615       38.08015
C         96.84552       34.10308       38.28789
C         95.34040       34.30096       38.39629
O         94.86298       35.42620       38.37211
C         97.39382       33.42942       39.57452
C         98.84944       32.99986       39.38985
O         97.30833       34.30105       40.67357
H         97.37790       36.11752       38.77567
H         97.01295       33.40918       37.43440
H         96.84037       32.49068       39.80012
H         96.35482       34.33314       40.94535
H         99.50119       33.87252       39.17783
H         99.21223       32.49764       40.31147
H         98.92545       32.27725       38.54809
N         94.53805       33.21696       38.58414
C         93.11750       33.29088       38.89068
C         92.99983       32.93839       40.35389
O         93.41727       31.85166       40.73542
C         92.30215       32.30126       38.00218
C         92.41173       32.69065       36.50742
C         90.82329       32.24568       38.45108
C         91.81612       31.64008       35.56366
H         94.97498       32.28305       38.62022
H         92.72193       34.32037       38.73799
H         92.73850       31.28569       38.13567
H         93.48280       32.79207       36.23232
H         91.91574       33.67109       36.33421
H         90.24799       31.49701       37.87203
H         90.74366       31.92615       39.50998
H         90.33872       33.23926       38.34285
H         91.96045       31.96277       34.51150
H         92.33065       30.66550       35.70623
H         90.72808       31.50398       35.72265
N         92.43867       33.80957       41.23651
C         92.29363       33.48804       42.64638
C         90.94073       32.85361       42.89321
O         90.13140       32.78306       41.98227
C         92.53769       34.73417       43.52763
C         93.97623       35.18278       43.46522
O         94.49310       35.79205       42.37931
O         94.69543       35.00769       44.43561
H         92.02206       34.68426       40.88458
H         93.03795       32.71400       42.93817
H         92.34293       34.44387       44.57889
H         91.84287       35.56711       43.27415
N         90.65487       32.30223       44.10467
C         89.38141       31.66495       44.41655
C         88.21624       32.65528       44.32604
O         87.26422       32.33164       43.62961
C         89.43124       30.99391       45.80423
C         88.17144       30.20743       46.08236
C         87.30179       30.60220       47.11158
C         87.85385       29.07195       45.31284
C         86.13184       29.87869       47.36202
C         86.68613       28.34805       45.57121
C         85.82469       28.75237       46.59377
H         91.38839       32.31753       44.83077
H         89.22149       30.84706       43.67744
H         89.59241       31.76463       46.58146
H         90.29418       30.29419       45.85734
H         87.52384       31.47458       47.71301
H         88.51106       28.74237       44.51757
H         85.46259       30.19226       48.15212
H         86.44891       27.47359       44.97844
H         84.91957       28.19275       46.79105
N         88.20399       33.88344       44.95117
C         87.09668       34.83816       44.86649
C         86.85064       35.41978       43.47102
O         85.94608       36.23389       43.34833
C         87.46833       35.91293       45.89746
C         88.97596       35.89840       45.84383
C         89.25932       34.40516       45.79966
H         86.14232       34.36788       45.19044
H         86.98581       36.90373       45.75979
H         87.19374       35.53422       46.90926
H         89.28926       36.34579       44.87225
H         89.49245       36.43245       46.66971
H         90.27534       34.28514       45.40380
H         89.16879       33.94799       46.80873
N         87.53293       34.99745       42.36981
C         87.18554       35.36468       41.00203
C         86.51245       34.17093       40.35265
O         85.38913       34.30893       39.89023
C         88.44306       35.74944       40.21178
C         89.13490       36.99227       40.78008
C         90.46591       37.21805       40.12951
O         91.30790       38.09806       40.68050
O         90.87340       36.48374       39.24209
H         88.27937       34.30794       42.47831
H         86.47374       36.22001       40.97498
H         88.18408       35.93999       39.14681
H         89.15392       34.89281       40.25013
H         89.34037       36.82048       41.85884
H         88.49300       37.89335       40.68046
N         87.12988       32.95463       40.31725
C         86.53136       31.76008       39.76222
H         85.52838       31.95115       39.32885
H         87.19304       31.35379       38.96942
H         86.42887       30.99994       40.56612
H         88.06550       32.84913       40.72505
Ca        93.24850       37.07344       41.03793
O         92.87985       36.82030       36.79949
H         93.26024       36.59912       35.91293
H         91.99733       36.37316       36.81014
O         95.69017       37.90439       37.47764
H         95.87829       38.15086       36.53716
H         95.86827       38.72794       37.99807

Ca 1.0



