%chk=holoCaM-CaMKII.loop1.water2.frame401.chk
%nprocshared=20
%mem=10GB
%nosave
#b3lyp/svp scf=(tight,noincore,xqc) Test 
#IOP(5/87=12) Density=Current Pop=(MK,readradii) iop(6/33=2) iop(6/42=6)

holoCaM-CaMKII.loop1.water2.frame401 

   0  1 
C         48.67647       65.79052       59.63516
C         48.93867       64.73751       58.60123
O         48.47508       64.89943       57.48649
H         47.58036       65.88333       59.79057
H         49.15036       65.53642       60.60583
H         49.07749       66.76390       59.28366
N         49.68353       63.63524       58.90101
C         49.95707       62.54235       57.96754
C         48.66306       61.81507       57.60711
O         48.29697       60.86249       58.28314
C         50.99361       61.58976       58.60970
C         51.30113       60.38810       57.76774
O         51.74034       60.51080       56.63620
O         51.09409       59.15976       58.27585
H         50.08489       63.57788       59.85001
H         50.42578       62.94967       57.04648
H         50.61424       61.23729       59.59412
H         51.93624       62.15173       58.78825
N         47.88523       62.25929       56.57826
C         46.58918       61.67259       56.25861
C         46.74608       60.30933       55.59838
O         45.79551       59.53985       55.58914
C         45.75428       62.58129       55.31752
C         45.69244       64.07696       55.70704
C         45.23253       64.40086       57.13589
C         43.76893       64.03818       57.40231
N         43.35645       64.52050       58.72149
H         48.20524       63.07029       56.04264
H         46.02557       61.57630       57.21271
H         44.72437       62.16735       55.25251
H         46.19357       62.55007       54.29515
H         45.03677       64.60619       54.98236
H         46.69805       64.52298       55.57927
H         45.34236       65.49976       57.26624
H         45.89324       63.90752       57.88115
H         43.63297       62.93644       57.34588
H         43.12691       64.51672       56.63002
H         43.94062       64.08040       59.46900
H         43.45659       65.56157       58.76857
H         42.35291       64.27598       58.88082
N         47.88576       59.99919       54.91471
C         48.07240       58.75357       54.18239
C         48.26872       57.60682       55.15022
O         47.55622       56.61628       55.07218
C         49.31928       58.83266       53.26721
C         49.19666       59.86966       52.18138
O         49.07331       61.17484       52.48686
O         49.24319       59.53323       51.00916
H         48.64135       60.69736       54.87395
H         47.19917       58.56270       53.51799
H         49.47064       57.83903       52.78634
H         50.21827       59.06804       53.86812
N         49.28260       57.67242       56.05560
C         49.69736       56.58074       56.91589
C         51.12359       56.15634       56.59684
O         51.63756       55.29248       57.29292
H         49.83482       58.54019       56.10537
H         49.03571       55.69455       56.80590
H         49.63944       56.92226       57.97101
N         51.81841       56.69137       55.54340
C         53.16635       56.27255       55.16855
C         54.20993       56.60388       56.23490
O         55.28809       56.03026       56.17856
C         53.53849       56.85014       53.77818
C         53.56452       58.35257       53.77925
O         52.61405       59.04728       53.13041
O         54.41361       58.95091       54.41190
H         51.35628       57.37782       54.93703
H         53.13430       55.16578       55.05837
H         52.75633       56.51495       53.06067
H         54.51469       56.45979       53.42172
N         53.96492       57.50694       57.23246
C         54.85954       57.73039       58.36109
C         55.46232       59.12055       58.43041
O         56.11677       59.39685       59.42641
H         53.08522       58.03752       57.22649
H         55.70363       57.00786       58.36244
H         54.27103       57.55101       59.28610
N         55.36713       60.01870       57.40772
C         56.04264       61.31715       57.41208
C         55.08614       62.45062       57.06106
O         53.93671       62.20406       56.72522
C         57.24581       61.27965       56.43296
C         58.33020       60.31076       56.92116
O         56.81106       60.89212       55.15721
H         54.86466       59.74740       56.55790
H         56.43937       61.54606       58.42580
H         57.70334       62.29342       56.38228
H         57.55691       61.07442       54.52746
H         58.69451       60.62132       57.92354
H         57.94304       59.27221       56.97820
H         59.19205       60.32559       56.22040
N         55.51543       63.74233       57.14693
C         54.69532       64.91477       56.85545
C         55.36107       65.70548       55.73770
O         56.54544       65.99857       55.83873
C         54.51888       65.77899       58.14212
C         53.81131       64.94420       59.24573
C         53.71157       67.05818       57.82765
C         53.65221       65.67635       60.58089
H         56.48234       63.91472       57.46448
H         53.67429       64.61980       56.53009
H         55.52433       66.08365       58.50969
H         54.40952       64.03126       59.45146
H         52.80546       64.62586       58.89247
H         52.69181       66.80048       57.47000
H         53.62712       67.71377       58.71638
H         54.21935       67.66701       57.05316
H         54.64325       65.99533       60.96689
H         52.98814       66.55904       60.48814
H         53.18566       64.99233       61.32099
N         54.63166       66.14027       54.66970
C         55.18329       66.93690       53.57715
C         54.71598       68.37735       53.69209
O         53.92563       68.69707       54.57082
C         54.76365       66.35232       52.19537
C         55.25592       64.92089       51.97125
O         53.37028       66.43071       52.01254
H         53.62107       65.96153       54.66805
H         56.29372       66.95395       53.63835
H         55.22715       66.95896       51.38988
H         52.94745       65.67878       52.50086
H         56.36245       64.87453       52.03530
H         54.81060       64.25032       52.72908
H         54.94053       64.57259       50.96356
N         55.17831       69.31028       52.81377
C         54.73045       70.69980       52.80922
C         53.23586       70.76657       52.56939
O         52.56460       71.55769       53.21430
C         55.45458       71.53490       51.72506
C         56.96274       71.63163       51.97477
O         55.22043       70.99097       50.45007
H         55.86024       69.00885       52.10227
H         54.96039       71.17177       53.79173
H         55.03949       72.57077       51.78522
H         55.17055       71.75054       49.81273
H         57.44949       70.63663       51.91723
H         57.42356       72.28845       51.20708
H         57.15841       72.07130       52.97577
N         52.65487       69.95878       51.63943
C         51.22940       69.96332       51.34176
C         50.41045       69.58338       52.56966
O         49.50096       70.32168       52.92136
C         50.95265       69.02455       50.14559
C         49.53603       69.20574       49.58076
C         49.35882       68.43043       48.26748
C         47.98004       68.70493       47.65098
N         47.82799       68.01313       46.37121
H         53.26202       69.31260       51.11122
H         50.95196       70.98962       51.01177
H         51.14389       67.96167       50.41462
H         51.66209       69.30806       49.33596
H         49.38295       70.28562       49.36132
H         48.77925       68.88148       50.32721
H         49.48272       67.34104       48.45155
H         50.13770       68.75990       47.54392
H         47.86143       69.79940       47.48372
H         47.18478       68.36864       48.35193
H         46.88044       68.22135       45.98092
H         48.55070       68.34858       45.69302
H         47.92150       66.98042       46.50521
N         50.70101       68.45857       53.28960
C         49.94363       68.03586       54.47435
C         49.97999       69.05688       55.61210
O         49.21027       68.89621       56.54946
C         50.45578       66.66907       54.99217
C         50.21852       65.54770       53.96306
C         50.80967       64.23526       54.39027
O         50.03142       63.14537       54.48547
O         52.00687       64.13046       54.59172
H         51.49188       67.88239       52.97131
H         48.87834       67.92395       54.17355
H         49.93149       66.39176       55.93143
H         51.53715       66.76790       55.22529
H         50.67245       65.80876       52.98941
H         49.12432       65.42680       53.80933
N         50.82412       70.12725       55.60317
C         50.82205       71.16972       56.60982
H         50.03902       71.01671       57.38110
H         51.81363       71.21244       57.10549
H         50.63008       72.14638       56.11474
H         51.50898       70.22302       54.85031
Ca        52.33056       61.21978       53.67703
O         55.05441       61.68502       52.99050
H         55.91647       61.47972       52.55100
H         55.28964       62.27996       53.74661
O         52.38410       62.36357       51.04321
H         52.71279       63.14308       50.53042
H         51.50756       62.65277       51.40249

Ca 1.0



