%chk=holoCaM.loop3.water2.frame62.chk
%nprocshared=20
%mem=10GB
%nosave
#b3lyp/svp scf=(tight,noincore,xqc) Test 
#IOP(5/87=12) Density=Current Pop=(MK,readradii) iop(6/33=2) iop(6/42=6)

holoCaM.loop3.water2.frame62 

   0  1 
C         76.48832      -13.99559        8.00123
C         75.41399      -13.40542        8.85463
O         74.48024      -14.10114        9.22789
H         77.44481      -14.04160        8.55936
H         76.19162      -15.00236        7.64351
H         76.61912      -13.34301        7.10969
N         75.44810      -12.07440        9.11532
C         74.32407      -11.34015        9.65431
C         73.50258      -10.91365        8.45610
O         73.68666       -9.81705        7.94954
C         74.87627      -10.19111       10.51839
C         73.82414       -9.39214       11.20409
O         72.84145       -9.98354       11.88696
O         73.87224       -8.18511       11.15850
H         76.21048      -11.52248        8.69140
H         73.69542      -11.98526       10.31348
H         75.52026       -9.50992        9.91929
H         75.50024      -10.63591       11.31008
N         72.69390      -11.82970        7.84818
C         71.96582      -11.57760        6.60762
C         70.85987      -10.54156        6.79593
O         70.56829       -9.81823        5.85365
C         71.44443      -12.90377        6.00032
C         72.62810      -13.83163        5.63164
C         72.17237      -15.13393        4.95313
C         73.36637      -16.05344        4.61991
N         74.06649      -15.64498        3.39651
H         72.62886      -12.76756        8.26912
H         72.68263      -11.16358        5.86466
H         70.87834      -12.67900        5.07185
H         70.75974      -13.41617        6.71470
H         73.18788      -14.10859        6.55246
H         73.32243      -13.28184        4.96417
H         71.58781      -14.92792        4.02964
H         71.51704      -15.66319        5.67601
H         72.99802      -17.09188        4.46900
H         74.06632      -16.07929        5.48565
H         74.16074      -14.60854        3.31884
H         75.01964      -16.07523        3.38150
H         73.53723      -16.00003        2.56580
N         70.23419      -10.38589        7.99881
C         69.31674       -9.27881        8.29909
C         70.07492       -7.97809        8.56945
O         69.46667       -6.91728        8.52680
C         68.36075       -9.60157        9.46753
C         69.07041       -9.95013       10.74407
O         68.99400       -9.13001       11.80548
O         69.67267      -11.00501       10.84388
H         70.51117      -11.02979        8.74288
H         68.67682       -9.10705        7.40335
H         67.69524      -10.44973        9.19871
H         67.71589       -8.71342        9.64705
N         71.41411       -7.98703        8.81584
C         72.24304       -6.79506        8.85864
C         72.00913       -5.90171       10.05811
O         72.49796       -4.78061       10.03389
H         71.87765       -8.88694        8.90910
H         72.05902       -6.23136        7.91858
H         73.31700       -7.08384        8.85139
N         71.28213       -6.31077       11.14047
C         70.93877       -5.41383       12.24580
C         72.13573       -4.96475       13.09045
O         71.97260       -4.07756       13.91657
C         69.83979       -6.04708       13.12828
C         70.33766       -7.09708       14.09578
N         70.13219       -6.94314       15.42583
O         70.91764       -8.08863       13.68464
H         70.89972       -7.26571       11.14129
H         70.48203       -4.51659       11.77199
H         69.06366       -6.49083       12.46651
H         69.34876       -5.24000       13.70806
H         69.64343       -6.11266       15.79142
H         70.45202       -7.65539       16.09710
N         73.35300       -5.56255       12.95733
C         74.55821       -5.19445       13.67583
C         75.06240       -6.28181       14.60583
O         76.08435       -6.04878       15.23522
H         73.44438       -6.32905       12.30147
H         74.38937       -4.28932       14.29597
H         75.34536       -4.96233       12.92764
N         74.37873       -7.44635       14.82158
C         74.68573       -8.32773       15.94856
C         74.38211       -9.78171       15.60497
O         73.32866      -10.05441       15.04788
C         73.83982       -7.87931       17.16656
C         74.14270       -6.45330       17.59600
C         73.27663       -5.39833       17.24946
C         75.29718       -6.16425       18.34576
C         73.56513       -4.08390       17.63839
C         75.57455       -4.85186       18.74691
C         74.70983       -3.80696       18.39338
O         74.96627       -2.53929       18.77783
H         73.48673       -7.59719       14.32890
H         75.75359       -8.24758       16.24466
H         74.02799       -8.54983       18.03393
H         72.76263       -7.97093       16.91368
H         72.38665       -5.58837       16.66394
H         75.97586       -6.95638       18.63354
H         72.89621       -3.27944       17.35609
H         76.46150       -4.64662       19.33370
H         75.73179       -2.31268       19.32609
N         75.25051      -10.77557       15.96362
C         75.00976      -12.19963       15.72382
C         74.92087      -12.93072       17.06115
O         75.90484      -12.96518       17.78779
C         76.15410      -12.81277       14.85675
C         76.21396      -12.16398       13.45377
C         75.97648      -14.33832       14.72577
C         77.40894      -12.65030       12.61951
H         76.11112      -10.51447       16.46721
H         74.05356      -12.34310       15.17965
H         77.11877      -12.61600       15.37648
H         76.31687      -11.06378       13.56524
H         75.27094      -12.37490       12.90116
H         76.81253      -14.80914       14.17824
H         75.98348      -14.82157       15.71789
H         75.02238      -14.56805       14.21132
H         77.44517      -12.11382       11.64972
H         78.35676      -12.45981       13.16654
H         77.33898      -13.73054       12.38087
N         73.76936      -13.56060       17.43764
C         73.64786      -14.32744       18.67829
C         74.39781      -15.64901       18.62062
O         74.88862      -16.02381       17.57537
C         72.16385      -14.61661       18.97962
O         71.59218      -15.37035       17.94937
H         72.93889      -13.45626       16.83860
H         74.05479      -13.71559       19.51000
H         71.62186      -13.65253       19.05888
H         72.07753      -15.17021       19.94118
H         70.64665      -15.53404       18.19899
N         74.50144      -16.42243       19.73631
C         75.09893      -17.75709       19.75192
C         74.23536      -18.80547       19.03076
O         74.70949      -19.91540       18.83273
C         75.30454      -18.17979       21.21034
H         74.15861      -16.02285       20.62113
H         76.10002      -17.70114       19.26434
H         74.31847      -18.27127       21.71579
H         75.85147      -19.14136       21.28767
H         75.89261      -17.39838       21.74072
N         72.96061      -18.53017       18.62278
C         72.10573      -19.46054       17.87960
C         72.22629      -19.19455       16.38999
O         72.27163      -20.12062       15.59416
C         70.63893      -19.27280       18.29584
H         72.57003      -17.60215       18.83090
H         72.37305      -20.51488       18.10555
H         70.25468      -18.27302       17.99332
H         70.01051      -20.04750       17.80471
H         70.52727      -19.37631       19.39528
N         72.28745      -17.90900       15.96530
C         72.45201      -17.45020       14.59632
C         73.79930      -17.94087       14.07754
O         73.85442      -18.60823       13.05489
C         72.29263      -15.91396       14.64858
C         72.14934      -15.19557       13.31496
C         71.77478      -13.75569       13.54325
O         71.43282      -12.99266       12.50614
O         71.74253      -13.26651       14.66246
H         72.25037      -17.19036       16.69066
H         71.62275      -17.84455       13.96900
H         73.09773      -15.45350       15.26174
H         71.32396      -15.73232       15.17410
H         71.31857      -15.66434       12.74929
H         73.08444      -15.25844       12.71954
N         74.91829      -17.71834       14.81751
C         76.22094      -18.28430       14.54595
H         76.93629      -17.94590       15.33069
H         76.16903      -19.39321       14.60348
H         76.59897      -17.96268       13.55661
H         74.82630      -17.16317       15.66290
Ca        71.18785      -10.86137       13.04257
O         70.60373      -10.38383       15.94613
H         71.31845      -10.53700       16.61306
H         69.76241      -10.49201       16.45490
O         68.38366      -11.26647       14.13906
H         67.79763      -12.03336       13.92044
H         67.78408      -10.60480       14.56697

Ca 1.0



