%chk=holoCaM-CaMKII.loop3.water1.frame436.chk
%nprocshared=20
%mem=10GB
%nosave
#b3lyp/svp scf=(tight,noincore,xqc) Test 
#IOP(5/87=12) Density=Current Pop=(MK,readradii) iop(6/33=2) iop(6/42=6)

holoCaM-CaMKII.loop3.water1.frame436 

   0  1 
C         59.65731       70.57432       37.90706
C         58.97155       70.47722       39.24042
O         59.21957       71.31413       40.09601
H         60.75350       70.45867       38.03431
H         59.29813       69.78873       37.20807
H         59.44357       71.56465       37.45301
N         58.10679       69.45652       39.49253
C         57.35482       69.30682       40.73251
C         57.94860       68.14473       41.51087
O         58.15006       67.09281       40.91799
C         55.87431       69.08616       40.36324
C         54.94791       69.28724       41.52465
O         55.03541       68.52275       42.61989
O         54.10285       70.16349       41.47698
H         57.97353       68.73541       38.76554
H         57.42481       70.23562       41.34098
H         55.73291       68.07491       39.92104
H         55.58903       69.83554       39.59222
N         58.30179       68.26996       42.82775
C         59.06420       67.23379       43.53171
C         58.19159       66.20158       44.22534
O         58.71733       65.17255       44.62575
C         60.16287       67.85903       44.42266
C         59.66366       68.58658       45.68902
C         60.84106       69.33509       46.35337
C         60.48217       70.13018       47.62410
N         60.06912       69.26669       48.72890
H         58.07165       69.14533       43.31892
H         59.61878       66.65734       42.75831
H         60.72440       68.57561       43.78189
H         60.87198       67.06625       44.74574
H         59.22003       67.84425       46.38449
H         58.87601       69.31271       45.42555
H         61.24109       70.06617       45.61556
H         61.65336       68.61741       46.59889
H         59.68734       70.87656       47.41758
H         61.39064       70.69299       47.93790
H         60.81693       68.56551       48.93564
H         59.92113       69.85748       49.57951
H         59.17219       68.78319       48.50117
N         56.85115       66.38729       44.37151
C         55.93247       65.37542       44.88121
C         54.80462       65.08429       43.87554
O         53.92319       64.30289       44.20524
C         55.43293       65.79696       46.28079
C         54.81341       67.15960       46.33420
O         53.79365       67.39186       45.71917
O         55.37244       68.12947       47.08298
H         56.44921       67.29531       44.11224
H         56.45463       64.40634       45.04104
H         56.31202       65.80391       46.96129
H         54.71314       65.04535       46.67227
N         54.79296       65.62257       42.61339
C         53.78773       65.32120       41.59733
C         52.37909       65.81966       41.88650
O         51.49978       65.52258       41.09001
H         55.57624       66.21206       42.30698
H         53.75612       64.21950       41.45369
H         54.10124       65.77796       40.63298
N         52.06784       66.54494       42.99682
C         50.69200       66.88237       43.36660
C         50.00611       67.87387       42.42977
O         48.79830       68.01827       42.55888
C         50.63889       67.38483       44.83198
C         51.15443       68.82758       45.01972
N         51.55977       69.06704       46.39996
O         52.17881       69.11920       44.11024
H         52.82173       66.77150       43.64947
H         50.12783       65.92277       43.33937
H         51.22596       66.66980       45.45015
H         49.59464       67.35964       45.21237
H         50.78888       68.76553       47.04061
H         51.67247       70.09517       46.52439
N         50.68934       68.61621       41.50119
C         50.01571       69.52534       40.57847
C         50.35269       70.99644       40.75855
O         49.74831       71.78964       40.04950
H         51.71318       68.52932       41.42726
H         48.91390       69.44865       40.69021
H         50.25749       69.22070       39.53754
N         51.27563       71.46173       41.65243
C         51.51848       72.89480       41.83637
C         52.83223       73.18881       42.54063
O         53.14441       72.54732       43.53258
C         50.36340       73.59715       42.58502
C         50.09751       73.06415       43.97731
C         50.45319       73.82229       45.10733
C         49.46106       71.82455       44.16156
C         50.18310       73.34615       46.39435
C         49.17827       71.35837       45.44910
C         49.53969       72.11330       46.56883
O         49.26241       71.64611       47.80303
H         51.82040       70.78983       42.20668
H         51.59759       73.37120       40.83363
H         49.41980       73.55116       42.00238
H         50.63930       74.67382       42.64742
H         50.94678       74.77952       44.99472
H         49.16184       71.22585       43.31225
H         50.47030       73.93814       47.25438
H         48.67528       70.40782       45.57649
H         49.49235       72.13841       48.60405
N         53.61542       74.22283       42.10465
C         54.88955       74.59275       42.71564
C         54.83118       75.96517       43.38024
O         53.89676       76.72844       43.17704
C         56.04811       74.56540       41.66333
C         55.76989       75.53331       40.47569
C         56.29695       73.13024       41.17512
C         56.95806       75.72460       39.53321
H         53.27381       74.79143       41.31655
H         55.13132       73.87466       43.53129
H         56.97808       74.90298       42.17107
H         55.52108       76.54035       40.87258
H         54.90785       75.17375       39.87509
H         55.40733       72.72685       40.64790
H         57.16932       73.08495       40.49383
H         56.53065       72.47698       42.03854
H         57.24481       74.77773       39.03494
H         56.67712       76.45030       38.73963
H         57.82676       76.13294       40.09100
N         55.83980       76.30700       44.22645
C         56.01931       77.57333       44.92045
C         57.43390       78.08612       44.65158
O         58.14142       77.48404       43.85626
C         55.82060       77.32589       46.42977
O         56.78168       76.43414       46.93552
H         56.54394       75.59172       44.42305
H         55.26844       78.32619       44.59583
H         54.79028       76.94508       46.61988
H         55.89607       78.27569       46.99763
H         56.40090       75.52073       46.86034
N         57.94594       79.15761       45.31769
C         59.35497       79.53519       45.21948
C         60.24071       78.40922       45.74074
O         61.14440       77.98378       45.03522
C         59.63111       80.80764       46.02662
H         57.33349       79.68687       45.95696
H         59.61186       79.76067       44.15956
H         59.39515       80.66240       47.10198
H         60.70234       81.09013       45.93076
H         59.01501       81.64344       45.63346
N         60.01730       77.87438       46.97850
C         60.83862       76.82415       47.58535
C         60.82538       75.48786       46.84543
O         61.52198       74.58833       47.29756
C         60.36416       76.57562       49.02677
H         59.23900       78.26428       47.53236
H         61.88876       77.18747       47.62838
H         61.01010       75.82623       49.53351
H         60.40831       77.51707       49.61341
H         59.31706       76.20018       49.02888
N         60.07958       75.26560       45.72476
C         60.02537       73.98005       45.04036
C         60.69828       74.12272       43.68968
O         61.67464       73.42929       43.44154
C         58.55241       73.52936       44.98888
C         58.34648       72.04351       44.70134
C         56.93627       71.61673       45.04445
O         56.50638       71.78676       46.17451
O         56.15839       71.00042       44.14004
H         59.50139       76.01911       45.34109
H         60.58394       73.21683       45.62671
H         57.98979       74.12535       44.25664
H         58.14467       73.71532       46.00735
H         59.01717       71.48576       45.37103
H         58.61242       71.79797       43.65079
N         60.27941       75.06882       42.80214
C         60.96747       75.37658       41.56488
H         61.86739       74.74591       41.40981
H         60.27699       75.24253       40.70820
H         61.29724       76.43869       41.59404
H         59.45705       75.63944       43.02797
Ca        54.11297       70.17675       44.71174
O         53.56015       72.04042       46.95349
H         52.97206       72.49740       46.30161
H         52.94766       71.72506       47.66414

Ca 1.0



