%chk=holoCaM-CaMKII.loop4.water2.frame259.chk
%nprocshared=20
%mem=10GB
%nosave
#b3lyp/svp scf=(tight,noincore,xqc) Test 
#IOP(5/87=12) Density=Current Pop=(MK,readradii) iop(6/33=2) iop(6/42=6)

holoCaM-CaMKII.loop4.water2.frame259 

   -3  1 
C         78.89451      -13.48059       72.31499
C         78.33873      -13.12335       73.66628
O         79.08561      -13.06611       74.62778
H         79.98826      -13.66631       72.36579
H         78.39827      -14.40317       71.94258
H         78.70258      -12.65704       71.59545
N         77.00974      -12.87081       73.79750
C         76.32535      -12.56605       75.05839
C         76.43234      -13.73947       76.03722
O         76.16726      -14.87325       75.66522
C         74.86456      -12.21120       74.72665
C         73.92459      -12.03682       75.88743
O         72.92816      -12.73830       75.92877
O         74.07978      -11.12439       76.86254
H         76.44859      -12.90757       72.93080
H         76.77456      -11.65731       75.51831
H         74.44388      -13.02234       74.09300
H         74.86389      -11.27516       74.12439
N         76.83286      -13.50104       77.32019
C         77.07856      -14.49169       78.36191
C         76.17720      -14.16823       79.55184
O         75.33019      -14.97792       79.90107
C         78.58662      -14.45295       78.80405
C         79.53628      -14.65220       77.59900
C         78.85617      -15.49042       79.91053
C         81.02348      -14.51721       77.94653
H         76.95968      -12.53218       77.58675
H         76.84880      -15.51009       77.97616
H         78.82255      -13.44989       79.21805
H         79.32211      -13.85385       76.86787
H         79.35605      -15.63661       77.11736
H         78.68184      -16.51859       79.53080
H         79.89496      -15.41166       80.28905
H         78.19928      -15.31228       80.78670
H         81.22458      -13.53483       78.42505
H         81.35995      -15.32976       78.62063
H         81.62833      -14.58326       77.01751
N         76.33360      -12.98938       80.23221
C         75.54340      -12.58515       81.39656
C         74.06982      -12.30151       81.08623
O         73.33664      -11.99829       82.01748
C         76.20879      -11.38112       82.12161
C         76.43282      -10.13413       81.29905
O         76.94205       -9.15859       81.82457
O         76.13371      -10.09171       79.98904
H         77.09447      -12.36520       79.93550
H         75.56636      -13.41940       82.13356
H         77.20685      -11.70772       82.48872
H         75.59931      -11.11817       83.01382
N         73.54467      -12.43807       79.83575
C         72.12660      -12.31582       79.54092
C         71.66233      -10.87336       79.45421
O         71.63750      -10.18331       80.46052
H         74.14549      -12.73869       79.05861
H         71.51801      -12.90033       80.26373
H         71.96369      -12.80117       78.55540
N         71.28334      -10.37757       78.23710
C         70.76565       -9.03155       77.93779
C         70.65326       -8.73032       76.41961
O         70.07530       -7.70405       76.08862
C         71.58082       -7.90010       78.61257
C         73.04624       -7.96709       78.30741
O         73.93159       -8.08071       79.31578
O         73.44373       -7.90619       77.15660
H         71.33519      -11.05789       77.48058
H         69.73728       -8.97743       78.35792
H         71.44787       -7.93890       79.71194
H         71.18165       -6.91106       78.29779
N         71.17743       -9.53680       75.44532
C         71.10847       -9.27558       74.01986
C         72.00057       -8.13673       73.59945
O         71.58143       -7.33978       72.77609
H         71.68090      -10.39464       75.66907
H         70.05804       -9.15216       73.67739
H         71.51897      -10.16891       73.49853
N         73.29040       -8.08638       74.04394
C         74.30642       -7.13361       73.57927
C         75.70931       -7.59918       73.96498
O         75.86624       -8.52215       74.75398
C         74.12127       -5.68993       74.12698
C         72.92653       -4.90995       73.57048
C         72.93514       -3.48395       74.05888
N         71.89463       -2.99253       74.77104
O         73.88625       -2.76058       73.80081
H         73.57436       -8.84459       74.68113
H         74.29563       -7.14068       72.46735
H         75.02138       -5.10198       73.84396
H         74.06972       -5.71533       75.23572
H         71.98318       -5.37878       73.89753
H         72.98073       -4.89990       72.45936
H         71.07870       -3.58166       74.99248
H         71.90195       -2.01613       75.09978
N         76.79212       -7.01382       73.37339
C         78.16252       -7.43806       73.61612
C         78.99428       -6.25003       74.07294
O         79.36618       -5.43032       73.24353
C         78.72080       -8.10360       72.32111
C         80.21612       -8.44333       72.40883
C         77.93662       -9.39094       72.00357
H         76.63721       -6.27344       72.67192
H         78.19521       -8.20021       74.41501
H         78.59293       -7.39338       71.47346
H         80.40966       -9.16318       73.22618
H         80.55663       -8.89424       71.45180
H         80.82296       -7.52913       72.57020
H         76.85430       -9.18217       71.87566
H         78.30475       -9.84820       71.06082
H         78.05830      -10.13054       72.82536
N         79.32681       -6.09373       75.39125
C         80.24433       -5.05298       75.84926
C         81.67544       -5.42472       75.47273
O         81.88028       -6.47979       74.89828
C         80.10307       -4.72981       77.36550
C         80.72425       -5.69197       78.35693
N         80.22723       -6.92649       78.57148
O         81.67749       -5.31608       79.02253
H         78.90198       -6.72365       76.07527
H         79.95304       -4.10695       75.34030
H         79.03568       -4.55653       77.62103
H         80.61793       -3.75662       77.52099
H         79.39747       -7.25743       78.07529
H         80.65696       -7.54227       79.27774
N         82.71825       -4.60296       75.76522
C         84.10710       -4.88870       75.40126
C         84.65053       -6.16059       76.04777
O         85.25533       -6.95593       75.34305
C         84.98946       -3.68103       75.76916
C         86.42962       -3.86253       75.34974
C         86.76529       -4.08302       74.00107
C         87.45295       -3.80454       76.30886
C         88.10029       -4.24947       73.62366
C         88.78764       -3.96388       75.92779
C         89.11560       -4.18859       74.58304
O         90.39922       -4.34450       74.20242
H         82.50997       -3.71323       76.24192
H         84.15877       -5.00815       74.29680
H         84.92053       -3.50178       76.86495
H         84.59175       -2.78108       75.25156
H         85.99795       -4.12916       73.23902
H         87.21929       -3.63160       77.35192
H         88.34515       -4.42340       72.58321
H         89.56502       -3.91167       76.67903
H         91.13075       -4.30384       74.83470
N         84.47515       -6.41773       77.37547
C         84.98536       -7.61515       78.05401
C         84.58933       -8.87583       77.30122
O         85.45044       -9.68685       76.99037
C         84.46500       -7.63927       79.51519
C         84.98704       -8.81077       80.36638
C         86.48545       -8.80800       80.48022
O         87.12302       -7.74574       81.00884
O         87.13119       -9.77179       80.10089
H         83.92597       -5.73860       77.92129
H         86.09561       -7.56385       78.08159
H         83.35336       -7.68163       79.51307
H         84.76418       -6.69116       80.01384
H         84.63738       -9.77510       79.93810
H         84.56217       -8.72135       81.39025
N         83.30126       -9.05960       76.91837
C         82.83681      -10.19259       76.11790
C         83.57401      -10.24438       74.79193
O         84.12397      -11.28431       74.45709
C         81.31585      -10.08310       75.90012
C         80.60376      -10.17541       77.25514
C         79.13409      -10.01802       77.15413
O         78.36180      -10.88829       77.79390
O         78.62935       -9.05495       76.61177
H         82.63264       -8.31796       77.17410
H         83.02257      -11.14750       76.66050
H         80.95806      -10.90561       75.24150
H         81.07906       -9.10974       75.41741
H         80.95088       -9.38529       77.93604
H         80.82943      -11.15127       77.73646
N         83.67023       -9.13829       74.00906
C         84.41128       -9.11578       72.76901
H         85.46526       -9.41698       72.95145
H         83.94297       -9.80220       72.03466
H         84.41122       -8.08518       72.35202
H         83.23890       -8.26636       74.32447
Ca        75.68739       -9.89504       77.79410
O         77.15434       -7.06860       79.62720
H         77.75504       -7.85096       79.70909
H         77.66534       -6.32123       80.02751
O         75.84668       -6.03454       77.21173
H         74.92985       -5.83199       77.52446
H         76.35046       -5.20201       77.38981

Ca 1.0



