%chk=holoCaM-CaMKII.loop4.water2.frame212.chk
%nprocshared=20
%mem=10GB
%nosave
#b3lyp/svp scf=(tight,noincore,xqc) Test 
#IOP(5/87=12) Density=Current Pop=(MK,readradii) iop(6/33=2) iop(6/42=6)

holoCaM-CaMKII.loop4.water2.frame212 

   -3  1 
C         44.83385       52.74100       36.90562
C         45.35314       52.12295       35.64391
O         44.82214       51.12213       35.18495
H         43.95762       52.18448       37.29464
H         45.64009       52.73443       37.67013
H         44.53912       53.79401       36.70696
N         46.40683       52.70305       35.01977
C         47.00347       52.19983       33.79386
C         47.65923       50.83521       34.00712
O         48.58315       50.72225       34.80004
C         48.02083       53.23638       33.30588
C         48.81303       52.73121       32.16655
O         50.02739       52.67329       32.26038
O         48.18995       52.31678       31.05353
H         46.78543       53.56915       35.43651
H         46.21326       52.11594       33.01101
H         48.72127       53.50260       34.12601
H         47.48099       54.15774       32.99081
N         47.22162       49.75804       33.29509
C         47.73624       48.39904       33.44980
C         48.94228       48.14068       32.55184
O         49.93432       47.62568       33.04839
C         46.61258       47.34536       33.17226
C         45.32286       47.60602       33.99927
C         47.11410       45.90601       33.39885
C         45.53898       47.75771       35.50715
H         46.41433       49.90097       32.67583
H         48.04212       48.23486       34.50672
H         46.31728       47.38678       32.10673
H         44.59939       46.78171       33.81240
H         44.84243       48.53833       33.64584
H         47.45060       45.75191       34.44358
H         46.30447       45.17962       33.16910
H         47.95780       45.67244       32.71555
H         46.02715       46.86272       35.94028
H         46.15493       48.65590       35.72264
H         44.55776       47.90649       36.00433
N         48.91335       48.42746       31.21571
C         49.94822       47.99742       30.26995
C         50.91826       49.11050       29.86104
O         51.66074       48.92903       28.90613
C         49.30556       47.21707       29.09233
C         48.38328       48.01095       28.21032
O         47.79576       47.45759       27.29476
O         48.20007       49.32285       28.40633
H         48.10536       48.94258       30.84951
H         50.60869       47.25042       30.76162
H         48.71978       46.37403       29.52057
H         50.10239       46.78793       28.44826
N         51.12968       50.17323       30.68852
C         52.25804       51.09246       30.57998
C         52.20166       52.08102       29.43521
O         53.16984       52.18498       28.69572
H         50.54999       50.25946       31.53441
H         53.20801       50.51316       30.55807
H         52.28511       51.70421       31.50563
N         51.11522       52.88468       29.27022
C         51.01864       53.96743       28.29342
C         50.47371       55.27671       28.92815
O         50.28453       56.23710       28.19555
C         50.18105       53.47224       27.08716
C         48.79595       53.09912       27.48653
O         48.33140       51.84317       27.41793
O         48.07210       53.94940       27.95303
H         50.29102       52.68990       29.84388
H         52.02321       54.19951       27.87487
H         50.68349       52.58088       26.65436
H         50.12947       54.26011       26.30682
N         50.23851       55.40444       30.27505
C         49.78221       56.62853       30.93817
C         48.29480       56.95178       30.81957
O         47.88391       57.93699       31.41637
H         50.49214       54.63303       30.89942
H         50.39920       57.48982       30.60286
H         49.95896       56.50749       32.03048
N         47.42763       56.18521       30.10136
C         45.98720       56.43385       30.00131
C         45.18261       55.20249       30.39400
O         45.76230       54.16232       30.67453
C         45.60531       56.87407       28.57258
C         46.23771       58.22702       28.21584
C         45.64912       58.85186       26.97306
N         46.05316       60.08511       26.59358
O         44.78737       58.27409       26.32509
H         47.80610       55.38574       29.60703
H         45.68571       57.24668       30.69747
H         44.50405       57.00770       28.53688
H         45.88375       56.10505       27.81970
H         47.33731       58.11086       28.10002
H         46.03888       58.93638       29.04696
H         46.76720       60.59191       27.13716
H         45.63935       60.54204       25.76767
N         43.81676       55.27240       30.45761
C         42.96629       54.16024       30.86210
C         41.96823       53.84042       29.75531
O         41.04047       54.60426       29.52646
C         42.26792       54.52027       32.20508
C         41.22522       53.48127       32.64739
C         43.32067       54.67973       33.31589
H         43.35152       56.16848       30.24911
H         43.58105       53.25148       31.03781
H         41.73409       55.48907       32.07832
H         40.75105       53.80890       33.59806
H         40.41277       53.39347       31.89785
H         41.69055       52.48689       32.80259
H         44.06235       55.46288       33.05408
H         42.83788       54.97635       34.27039
H         43.86163       53.72104       33.47350
N         42.11694       52.69768       29.02805
C         41.17261       52.21810       28.02201
C         39.88660       51.75307       28.70585
O         39.84455       51.71099       29.92746
C         41.86622       51.05576       27.25166
C         41.13258       50.48409       26.06699
N         40.78726       51.26426       25.01907
O         40.89095       49.28780       26.02969
H         42.96319       52.14407       29.19015
H         40.96148       53.04734       27.31315
H         42.09639       50.23573       27.96861
H         42.83192       51.43936       26.85839
H         41.00612       52.26993       25.01537
H         40.30727       50.85511       24.20354
N         38.78814       51.39209       27.98432
C         37.58932       50.82072       28.60039
C         37.89297       49.43023       29.14083
O         37.36757       49.06469       30.18207
C         36.44421       50.72612       27.57596
C         35.17692       50.17161       28.19382
C         34.49220       50.87557       29.20312
C         34.67317       48.93390       27.76375
C         33.32451       50.34696       29.76606
C         33.51080       48.40586       28.33125
C         32.83085       49.11144       29.33363
O         31.70633       48.61253       29.88591
H         38.80834       51.51650       26.96182
H         37.24245       51.48831       29.42128
H         36.78060       50.08114       26.73521
H         36.22443       51.73496       27.16383
H         34.85633       51.83372       29.55273
H         35.18588       48.37162       26.99403
H         32.80229       50.89732       30.53952
H         33.14086       47.44744       27.99052
H         31.33385       47.76143       29.61351
N         38.72148       48.58881       28.45749
C         39.09244       47.25966       28.93696
C         39.93485       47.31426       30.21784
O         40.18970       46.25845       30.78056
C         39.83416       46.45993       27.83813
C         38.96053       46.27202       26.58144
C         39.63664       45.39657       25.56666
O         39.94707       44.12263       25.87447
O         39.88263       45.82430       24.45003
H         39.09462       48.91425       27.56011
H         38.15544       46.70570       29.16741
H         40.08175       45.45331       28.24187
H         40.78580       46.96859       27.56552
H         38.73526       47.25586       26.11775
H         37.99815       45.79401       26.86266
N         40.36851       48.49665       30.75488
C         41.06937       48.61583       32.03215
C         40.21590       49.34985       33.06553
O         40.60067       49.36573       34.22640
C         42.38046       49.40534       31.84834
C         43.28696       48.80738       30.76771
C         44.52116       49.63286       30.56422
O         45.71921       49.03927       30.51173
O         44.44814       50.83362       30.38239
H         40.18540       49.36656       30.25118
H         41.28872       47.60345       32.43750
H         42.91923       49.46893       32.81729
H         42.11552       50.44124       31.53648
H         42.73566       48.79676       29.80682
H         43.57416       47.76547       31.02700
N         39.06744       50.00291       32.71996
C         38.21730       50.71550       33.64650
H         37.19205       50.29039       33.59486
H         38.58001       50.65108       34.69133
H         38.17093       51.78350       33.34449
H         38.76866       50.03818       31.74602
Ca        47.07070       51.62210       29.24644
O         45.24299       50.05346       27.20692
H         45.57837       49.28808       27.73576
H         44.65746       49.64335       26.52275
O         45.32155       52.96317       26.99579
H         45.43641       52.82479       26.02261
H         45.74690       53.83783       27.16851

Ca 1.0



